gem5 Simulator System.  http://gem5.org
gem5 is copyrighted software; use the --copyright option for details.

gem5 compiled Dec  9 2015 17:23:43
gem5 started Dec  9 2015 17:28:42
gem5 executing on qstruct09.ecn.purdue.edu
command line: ./build/ALPHA_MESI_CMP_directory/gem5.opt -d m5out --debug-flag=Exec configs/spec2k6/run.py -b sjeng --cpu-type=inorder --caches --maxinsts=5000 --l1i_size=512B --l1d_size=512B --l1d_assoc=2 --l2cache --l2_size=1kB --l2_assoc=4 --l2_sc_assoc=2
/home/min/a/mzaim/ECE565Project/OptimalReplacementPolicyCache/gem5/configs/spec2k6
/home/min/a/mzaim/ECE565Project/OptimalReplacementPolicyCache/gem5/configs
/home/min/a/mzaim/ECE565Project/OptimalReplacementPolicyCache/gem5
Global frequency set at 1000000000000 ticks per second
**** REAL SIMULATION ****
info: Entering event queue @ 0.  Starting simulation...
 432000: system.cpu T0 : 0x1200001e0    : br         r29,0x1200001e4 : IntAlu :  D=0x00000001200001e4
 433000: system.cpu T0 : 0x1200001e4    : ldah       r29,13(r29)     : IntAlu :  D=0x00000001200d01e4
 434000: system.cpu T0 : 0x1200001e8    : lda        r29,-31164(r29) : IntAlu :  D=0x00000001200c8828
 434000: system.cpu T0 : 0x1200001ec    : subq       r30,16,r30      : IntAlu :  D=0x000000011ff91ff0
 434000: system.cpu T0 : 0x1200001f0    : bis        r31,0,r15       : IntAlu :  D=0x0000000000000000
 435000: system.cpu T0 : 0x1200001f4    : ldq        r16,-31136(r29) : MemRead :  A=0x1200c0e88
 864000: system.cpu T0 : 0x1200001f4    : ldq        r16,-31136(r29) : MemRead :  D=0x0000000120017680 A=0x1200c0e88
 864000: system.cpu T0 : 0x1200001f8    : ldl        r17,16(r30)     : MemRead :  A=0x11ff92000
1293000: system.cpu T0 : 0x1200001f8    : ldl        r17,16(r30)     : MemRead :  D=0x0000000000000002 A=0x11ff92000
1293000: system.cpu T0 : 0x1200001fc    : lda        r18,24(r30)     : IntAlu :  D=0x000000011ff92008
1302000: system.cpu T0 : 0x120000200    : ldq        r19,-31168(r29) : MemRead :  D=0x000000012001e4c0 A=0x1200c0e68
1311000: system.cpu T0 : 0x120000204    : ldq        r20,-32032(r29) : MemRead :  D=0x000000012001e450 A=0x1200c0b08
1311000: system.cpu T0 : 0x120000208    : bis        r31,r0,r21      : IntAlu :  D=0x0000000000000000
1311000: system.cpu T0 : 0x12000020c    : stq        r30,0(r30)      : MemWrite :  D=0x000000011ff91ff0 A=0x11ff91ff0
info: Increasing stack size by one page.
1317000: system.cpu T0 : 0x12000020c    : stq        r30,0(r30)      : MemWrite :  D=0x000000011ff91ff0 A=0x11ff91ff0
1317000: system.cpu T0 : 0x120000210    : nop        (ldq_u      r31,0(r30)) : No_OpClass : 
1317000: system.cpu T0 : 0x120000214    : bsr        r26,0x12001dc28 : IntAlu :  D=0x0000000120000218
1752000: system.cpu T0 : 0x12001dc28    : lda        r30,-720(r30)   : IntAlu :  D=0x000000011ff91d20
1752000: system.cpu T0 : 0x12001dc2c    : stq        r26,0(r30)      : MemWrite :  D=0x0000000120000218 A=0x11ff91d20
1752000: system.cpu T0 : 0x12001dc30    : stq        r9,8(r30)       : MemWrite :  D=0x0000000000000000 A=0x11ff91d28
1752000: system.cpu T0 : 0x12001dc34    : stq        r10,16(r30)     : MemWrite :  D=0x0000000000000000 A=0x11ff91d30
1753000: system.cpu T0 : 0x12001dc38    : stq        r11,24(r30)     : MemWrite :  D=0x0000000000000000 A=0x11ff91d38
1753000: system.cpu T0 : 0x12001dc3c    : stq        r12,32(r30)     : MemWrite :  D=0x0000000000000000 A=0x11ff91d40
2176000: system.cpu T0 : 0x12001dc40    : stq        r13,40(r30)     : MemWrite :  D=0x0000000000000000 A=0x11ff91d48
2176000: system.cpu T0 : 0x12001dc44    : stq        r16,688(r30)    : MemWrite :  D=0x0000000120017680 A=0x11ff91fd0
2176000: system.cpu T0 : 0x12001dc48    : stq        r17,696(r30)    : MemWrite :  D=0x0000000000000002 A=0x11ff91fd8
2176000: system.cpu T0 : 0x12001dc4c    : stq        r18,704(r30)    : MemWrite :  D=0x000000011ff92008 A=0x11ff91fe0
2177000: system.cpu T0 : 0x12001dc50    : bis        r31,r19,r13     : IntAlu :  D=0x000000012001e4c0
2177000: system.cpu T0 : 0x12001dc54    : bis        r31,r20,r12     : IntAlu :  D=0x000000012001e450
2177000: system.cpu T0 : 0x12001dc58    : bis        r31,r21,r11     : IntAlu :  D=0x0000000000000000
2177000: system.cpu T0 : 0x12001dc5c    : bis        r31,r31,r2      : IntAlu :  D=0x0000000000000000
2178000: system.cpu T0 : 0x12001dc60    : lda        r1,0(r31)       : IntAlu :  D=0x0000000000000000
2179000: system.cpu T0 : 0x12001dc64    : beq        r1,0x12001dc74  : IntAlu : 
2182000: system.cpu T0 : 0x12001dc74    : lda        r1,-29944(r29)  : IntAlu :  D=0x00000001200c1330
2182000: system.cpu T0 : 0x12001dc78    : stl        r2,0(r1)        : MemWrite :  D=0x0000000000000000 A=0x1200c1330
2183000: system.cpu T0 : 0x12001dc7c    : ldq        r1,696(r30)     : MemRead :  D=0x0000000000000002 A=0x11ff91fd8
2603000: system.cpu T0 : 0x12001dc80    : s8addq     r1,8,r2         : IntAlu :  D=0x0000000000000018
2604000: system.cpu T0 : 0x12001dc84    : ldq        r4,704(r30)     : MemRead :  D=0x000000011ff92008 A=0x11ff91fe0
2606000: system.cpu T0 : 0x12001dc88    : addq       r4,r2,r2        : IntAlu :  D=0x000000011ff92020
2606000: system.cpu T0 : 0x12001dc8c    : lda        r1,-29608(r29)  : IntAlu :  D=0x00000001200c1480
2607000: system.cpu T0 : 0x12001dc90    : stq        r2,0(r1)        : MemWrite :  D=0x000000011ff92020 A=0x1200c1480
3039000: system.cpu T0 : 0x12001dc94    : ldq        r3,-32592(r29)  : MemRead :  D=0x00000001200be5f8 A=0x1200c08d8
3039000: system.cpu T0 : 0x12001dc98    : ldq        r1,720(r30)     : MemRead :  D=0x000000011ff91ff0 A=0x11ff91ff0
3040000: system.cpu T0 : 0x12001dc9c    : stq        r1,0(r3)        : MemWrite :  D=0x000000011ff91ff0 A=0x1200be5f8
3046000: system.cpu T0 : 0x12001dc9c    : stq        r1,0(r3)        : MemWrite :  D=0x000000011ff91ff0 A=0x1200be5f8
3060000: system.cpu T0 : 0x12001dca0    : ldq        r1,0(r2)        : MemRead :  D=0x0000000000000000 A=0x11ff92020
3060000: system.cpu T0 : 0x12001dca4    : lda        r2,8(r2)        : IntAlu :  D=0x000000011ff92028
3062000: system.cpu T0 : 0x12001dca8    : bne        r1,0x12001dca0  : IntAlu : 
3062000: system.cpu T0 : 0x12001dcac    : bis        r31,r2,r16      : IntAlu :  D=0x000000011ff92028
3062000: system.cpu T0 : 0x12001dcb0    : nop        (ldq_u      r31,0(r30)) : No_OpClass : 
3063000: system.cpu T0 : 0x12001dcb4    : bsr        r26,0x1200337ac : IntAlu :  D=0x000000012001dcb8
3493000: system.cpu T0 : 0x1200337ac    : ldq        r2,0(r16)       : MemRead :  D=0x0000000000000006 A=0x11ff92028
3495000: system.cpu T0 : 0x1200337b0    : beq        r2,0x120033918  : IntAlu : 
3495000: system.cpu T0 : 0x1200337b4    : bis        r31,r31,r3      : IntAlu :  D=0x0000000000000000
3495000: system.cpu T0 : 0x1200337b8    : bis        r31,r31,r4      : IntAlu :  D=0x0000000000000000
3495000: system.cpu T0 : 0x1200337bc    : bis        r31,r31,r5      : IntAlu :  D=0x0000000000000000
3916000: system.cpu T0 : 0x1200337c0    : ldah       r1,-3(r29)      : IntAlu :  D=0x0000000120098828
3917000: system.cpu T0 : 0x1200337c4    : lda        r6,-25964(r1)   : IntAlu :  D=0x00000001200922bc
3917000: system.cpu T0 : 0x1200337c8    : ldah       r8,-1(r29)      : IntAlu :  D=0x00000001200b8828
3918000: system.cpu T0 : 0x1200337cc    : lda        r7,31640(r8)    : IntAlu :  D=0x00000001200c03c0
4350000: system.cpu T0 : 0x1200337d0    : ldq        r19,-31792(r29) : MemRead :  D=0x00000001200be600 A=0x1200c0bf8
4359000: system.cpu T0 : 0x1200337d4    : ldq        r18,-31680(r29) : MemRead :  D=0x00000001200c1a98 A=0x1200c0c68
4359000: system.cpu T0 : 0x1200337d8    : lda        r24,1(r31)      : IntAlu :  D=0x0000000000000001
4359000: system.cpu T0 : 0x1200337dc    : lda        r25,-1(r31)     : IntAlu :  D=0xffffffffffffffff
4368000: system.cpu T0 : 0x1200337e0    : ldq        r28,-30936(r29) : MemRead :  D=0x00000001200c1a48 A=0x1200c0f50
4368000: system.cpu T0 : 0x1200337e4    : ldah       r0,0(r29)       : IntAlu :  D=0x00000001200c8828
4783000: system.cpu T0 : 0x1200337e8    : ldq        r21,-30552(r29) : MemRead :  D=0x00000001200c1a60 A=0x1200c10d0
4792000: system.cpu T0 : 0x1200337ec    : ldq        r20,-31240(r29) : MemRead :  D=0x00000001200c1a28 A=0x1200c0e20
4801000: system.cpu T0 : 0x1200337f0    : ldq        r22,-31064(r29) : MemRead :  D=0x00000001200c1a40 A=0x1200c0ed0
4810000: system.cpu T0 : 0x1200337f4    : ldq        r23,-30216(r29) : MemRead :  D=0x00000001200c1a90 A=0x1200c1220
4810000: system.cpu T0 : 0x1200337f8    : lda        r2,-3(r2)       : IntAlu :  D=0x0000000000000003
4810000: system.cpu T0 : 0x1200337fc    : cmpule     r2,34,r1        : IntAlu :  D=0x0000000000000001
4810000: system.cpu T0 : 0x120033800    : beq        r1,0x1200338dc  : IntAlu : 
4811000: system.cpu T0 : 0x120033804    : s4addq     r2,r6,r1        : IntAlu :  D=0x00000001200922c8
4811000: system.cpu T0 : 0x120033808    : ldl        r1,0(r1)        : MemRead :  A=0x1200922c8
5240000: system.cpu T0 : 0x120033808    : ldl        r1,0(r1)        : MemRead :  D=0x00000000fff6afec A=0x1200922c8
5242000: system.cpu T0 : 0x12003380c    : addq       r29,r1,r1       : IntAlu :  D=0x0000000120033814
5243000: system.cpu T0 : 0x120033810    : jmp        (r1)            : IntAlu : 
5666000: system.cpu T0 : 0x120033814    : ldq        r1,8(r16)       : MemRead :  D=0x0000000000002000 A=0x11ff92030
5668000: system.cpu T0 : 0x120033818    : stq        r1,0(r23)       : MemWrite :  D=0x0000000000002000 A=0x1200c1a90
5668000: system.cpu T0 : 0x12003381c    : br         0x1200338dc     : IntAlu : 
6094000: system.cpu T0 : 0x1200338dc    : lda        r16,16(r16)     : IntAlu :  D=0x000000011ff92038
6096000: system.cpu T0 : 0x1200338e0    : ldq        r2,0(r16)       : MemRead :  D=0x0000000000000011 A=0x11ff92038
6098000: system.cpu T0 : 0x1200338e4    : bne        r2,0x1200337f8  : IntAlu : 
6102000: system.cpu T0 : 0x1200337f8    : lda        r2,-3(r2)       : IntAlu :  D=0x000000000000000e
6103000: system.cpu T0 : 0x1200337fc    : cmpule     r2,34,r1        : IntAlu :  D=0x0000000000000001
6104000: system.cpu T0 : 0x120033800    : beq        r1,0x1200338dc  : IntAlu : 
6104000: system.cpu T0 : 0x120033804    : s4addq     r2,r6,r1        : IntAlu :  D=0x00000001200922f4
6106000: system.cpu T0 : 0x120033808    : ldl        r1,0(r1)        : MemRead :  D=0x00000000fff6aff8 A=0x1200922f4
6108000: system.cpu T0 : 0x12003380c    : addq       r29,r1,r1       : IntAlu :  D=0x0000000120033820
6109000: system.cpu T0 : 0x120033810    : jmp        (r1)            : IntAlu : 
6543000: system.cpu T0 : 0x120033820    : ldq        r1,8(r16)       : MemRead :  D=0x0000000000000064 A=0x11ff92040
6545000: system.cpu T0 : 0x120033824    : stl        r1,0(r22)       : MemWrite :  D=0x0000000000000064 A=0x1200c1a40
6545000: system.cpu T0 : 0x120033828    : br         0x1200338dc     : IntAlu : 
6548000: system.cpu T0 : 0x1200338dc    : lda        r16,16(r16)     : IntAlu :  D=0x000000011ff92048
6550000: system.cpu T0 : 0x1200338e0    : ldq        r2,0(r16)       : MemRead :  D=0x0000000000000003 A=0x11ff92048
6552000: system.cpu T0 : 0x1200338e4    : bne        r2,0x1200337f8  : IntAlu : 
6555000: system.cpu T0 : 0x1200337f8    : lda        r2,-3(r2)       : IntAlu :  D=0x0000000000000000
6556000: system.cpu T0 : 0x1200337fc    : cmpule     r2,34,r1        : IntAlu :  D=0x0000000000000001
6557000: system.cpu T0 : 0x120033800    : beq        r1,0x1200338dc  : IntAlu : 
6557000: system.cpu T0 : 0x120033804    : s4addq     r2,r6,r1        : IntAlu :  D=0x00000001200922bc
6981000: system.cpu T0 : 0x120033808    : ldl        r1,0(r1)        : MemRead :  D=0x00000000fff6b004 A=0x1200922bc
6983000: system.cpu T0 : 0x12003380c    : addq       r29,r1,r1       : IntAlu :  D=0x000000012003382c
6984000: system.cpu T0 : 0x120033810    : jmp        (r1)            : IntAlu : 
6988000: system.cpu T0 : 0x12003382c    : ldq        r1,8(r16)       : MemRead :  D=0x0000000120000040 A=0x11ff92050
6990000: system.cpu T0 : 0x120033830    : stq        r1,0(r20)       : MemWrite :  D=0x0000000120000040 A=0x1200c1a28
6990000: system.cpu T0 : 0x120033834    : br         0x1200338dc     : IntAlu : 
6993000: system.cpu T0 : 0x1200338dc    : lda        r16,16(r16)     : IntAlu :  D=0x000000011ff92058
6995000: system.cpu T0 : 0x1200338e0    : ldq        r2,0(r16)       : MemRead :  D=0x0000000000000005 A=0x11ff92058
6997000: system.cpu T0 : 0x1200338e4    : bne        r2,0x1200337f8  : IntAlu : 
7000000: system.cpu T0 : 0x1200337f8    : lda        r2,-3(r2)       : IntAlu :  D=0x0000000000000002
7001000: system.cpu T0 : 0x1200337fc    : cmpule     r2,34,r1        : IntAlu :  D=0x0000000000000001
7002000: system.cpu T0 : 0x120033800    : beq        r1,0x1200338dc  : IntAlu : 
7002000: system.cpu T0 : 0x120033804    : s4addq     r2,r6,r1        : IntAlu :  D=0x00000001200922c4
7004000: system.cpu T0 : 0x120033808    : ldl        r1,0(r1)        : MemRead :  D=0x00000000fff6b010 A=0x1200922c4
7006000: system.cpu T0 : 0x12003380c    : addq       r29,r1,r1       : IntAlu :  D=0x0000000120033838
7007000: system.cpu T0 : 0x120033810    : jmp        (r1)            : IntAlu : 
7011000: system.cpu T0 : 0x120033838    : ldq        r1,8(r16)       : MemRead :  D=0x0000000000000005 A=0x11ff92060
7013000: system.cpu T0 : 0x12003383c    : stq        r1,0(r21)       : MemWrite :  D=0x0000000000000005 A=0x1200c1a60
7013000: system.cpu T0 : 0x120033840    : br         0x1200338dc     : IntAlu : 
7016000: system.cpu T0 : 0x1200338dc    : lda        r16,16(r16)     : IntAlu :  D=0x000000011ff92068
7018000: system.cpu T0 : 0x1200338e0    : ldq        r2,0(r16)       : MemRead :  D=0x0000000000000009 A=0x11ff92068
7020000: system.cpu T0 : 0x1200338e4    : bne        r2,0x1200337f8  : IntAlu : 
7023000: system.cpu T0 : 0x1200337f8    : lda        r2,-3(r2)       : IntAlu :  D=0x0000000000000006
7024000: system.cpu T0 : 0x1200337fc    : cmpule     r2,34,r1        : IntAlu :  D=0x0000000000000001
7025000: system.cpu T0 : 0x120033800    : beq        r1,0x1200338dc  : IntAlu : 
7025000: system.cpu T0 : 0x120033804    : s4addq     r2,r6,r1        : IntAlu :  D=0x00000001200922d4
7027000: system.cpu T0 : 0x120033808    : ldl        r1,0(r1)        : MemRead :  D=0x00000000fff6b0b4 A=0x1200922d4
7029000: system.cpu T0 : 0x12003380c    : addq       r29,r1,r1       : IntAlu :  D=0x00000001200338dc
7030000: system.cpu T0 : 0x120033810    : jmp        (r1)            : IntAlu : 
7033000: system.cpu T0 : 0x1200338dc    : lda        r16,16(r16)     : IntAlu :  D=0x000000011ff92078
7035000: system.cpu T0 : 0x1200338e0    : ldq        r2,0(r16)       : MemRead :  D=0x000000000000000b A=0x11ff92078
7037000: system.cpu T0 : 0x1200338e4    : bne        r2,0x1200337f8  : IntAlu : 
7040000: system.cpu T0 : 0x1200337f8    : lda        r2,-3(r2)       : IntAlu :  D=0x0000000000000008
7041000: system.cpu T0 : 0x1200337fc    : cmpule     r2,34,r1        : IntAlu :  D=0x0000000000000001
7042000: system.cpu T0 : 0x120033800    : beq        r1,0x1200338dc  : IntAlu : 
7042000: system.cpu T0 : 0x120033804    : s4addq     r2,r6,r1        : IntAlu :  D=0x00000001200922dc
7044000: system.cpu T0 : 0x120033808    : ldl        r1,0(r1)        : MemRead :  D=0x00000000fff6b034 A=0x1200922dc
7046000: system.cpu T0 : 0x12003380c    : addq       r29,r1,r1       : IntAlu :  D=0x000000012003385c
7047000: system.cpu T0 : 0x120033810    : jmp        (r1)            : IntAlu : 
7481000: system.cpu T0 : 0x12003385c    : ldl        r1,8(r16)       : MemRead :  D=0x0000000000000064 A=0x11ff92080
7483000: system.cpu T0 : 0x120033860    : xor        r4,r1,r4        : IntAlu :  D=0x0000000000000064
7483000: system.cpu T0 : 0x120033864    : bis        r3,1,r3         : IntAlu :  D=0x0000000000000001
7483000: system.cpu T0 : 0x120033868    : br         0x1200338dc     : IntAlu : 
7486000: system.cpu T0 : 0x1200338dc    : lda        r16,16(r16)     : IntAlu :  D=0x000000011ff92088
7488000: system.cpu T0 : 0x1200338e0    : ldq        r2,0(r16)       : MemRead :  D=0x000000000000000c A=0x11ff92088
7490000: system.cpu T0 : 0x1200338e4    : bne        r2,0x1200337f8  : IntAlu : 
7493000: system.cpu T0 : 0x1200337f8    : lda        r2,-3(r2)       : IntAlu :  D=0x0000000000000009
7494000: system.cpu T0 : 0x1200337fc    : cmpule     r2,34,r1        : IntAlu :  D=0x0000000000000001
7495000: system.cpu T0 : 0x120033800    : beq        r1,0x1200338dc  : IntAlu : 
7495000: system.cpu T0 : 0x120033804    : s4addq     r2,r6,r1        : IntAlu :  D=0x00000001200922e0
7497000: system.cpu T0 : 0x120033808    : ldl        r1,0(r1)        : MemRead :  D=0x00000000fff6b044 A=0x1200922e0
7499000: system.cpu T0 : 0x12003380c    : addq       r29,r1,r1       : IntAlu :  D=0x000000012003386c
7500000: system.cpu T0 : 0x120033810    : jmp        (r1)            : IntAlu : 
7504000: system.cpu T0 : 0x12003386c    : ldl        r1,8(r16)       : MemRead :  D=0x0000000000000064 A=0x11ff92090
7506000: system.cpu T0 : 0x120033870    : xor        r4,r1,r4        : IntAlu :  D=0x0000000000000000
7506000: system.cpu T0 : 0x120033874    : bis        r3,2,r3         : IntAlu :  D=0x0000000000000003
7506000: system.cpu T0 : 0x120033878    : br         0x1200338dc     : IntAlu : 
7510000: system.cpu T0 : 0x1200338dc    : lda        r16,16(r16)     : IntAlu :  D=0x000000011ff92098
7512000: system.cpu T0 : 0x1200338e0    : ldq        r2,0(r16)       : MemRead :  D=0x000000000000000d A=0x11ff92098
7514000: system.cpu T0 : 0x1200338e4    : bne        r2,0x1200337f8  : IntAlu : 
7518000: system.cpu T0 : 0x1200337f8    : lda        r2,-3(r2)       : IntAlu :  D=0x000000000000000a
7519000: system.cpu T0 : 0x1200337fc    : cmpule     r2,34,r1        : IntAlu :  D=0x0000000000000001
7520000: system.cpu T0 : 0x120033800    : beq        r1,0x1200338dc  : IntAlu : 
7520000: system.cpu T0 : 0x120033804    : s4addq     r2,r6,r1        : IntAlu :  D=0x00000001200922e4
7522000: system.cpu T0 : 0x120033808    : ldl        r1,0(r1)        : MemRead :  D=0x00000000fff6b054 A=0x1200922e4
7524000: system.cpu T0 : 0x12003380c    : addq       r29,r1,r1       : IntAlu :  D=0x000000012003387c
7525000: system.cpu T0 : 0x120033810    : jmp        (r1)            : IntAlu : 
7529000: system.cpu T0 : 0x12003387c    : ldl        r1,8(r16)       : MemRead :  D=0x0000000000000064 A=0x11ff920a0
7531000: system.cpu T0 : 0x120033880    : xor        r5,r1,r5        : IntAlu :  D=0x0000000000000064
7531000: system.cpu T0 : 0x120033884    : bis        r3,4,r3         : IntAlu :  D=0x0000000000000007
7531000: system.cpu T0 : 0x120033888    : br         0x1200338dc     : IntAlu : 
7534000: system.cpu T0 : 0x1200338dc    : lda        r16,16(r16)     : IntAlu :  D=0x000000011ff920a8
7536000: system.cpu T0 : 0x1200338e0    : ldq        r2,0(r16)       : MemRead :  D=0x000000000000000e A=0x11ff920a8
7538000: system.cpu T0 : 0x1200338e4    : bne        r2,0x1200337f8  : IntAlu : 
7542000: system.cpu T0 : 0x1200337f8    : lda        r2,-3(r2)       : IntAlu :  D=0x000000000000000b
7543000: system.cpu T0 : 0x1200337fc    : cmpule     r2,34,r1        : IntAlu :  D=0x0000000000000001
7544000: system.cpu T0 : 0x120033800    : beq        r1,0x1200338dc  : IntAlu : 
7544000: system.cpu T0 : 0x120033804    : s4addq     r2,r6,r1        : IntAlu :  D=0x00000001200922e8
7546000: system.cpu T0 : 0x120033808    : ldl        r1,0(r1)        : MemRead :  D=0x00000000fff6b064 A=0x1200922e8
7548000: system.cpu T0 : 0x12003380c    : addq       r29,r1,r1       : IntAlu :  D=0x000000012003388c
7549000: system.cpu T0 : 0x120033810    : jmp        (r1)            : IntAlu : 
7554000: system.cpu T0 : 0x12003388c    : ldl        r1,8(r16)       : MemRead :  D=0x0000000000000064 A=0x11ff920b0
7556000: system.cpu T0 : 0x120033890    : xor        r5,r1,r5        : IntAlu :  D=0x0000000000000000
7556000: system.cpu T0 : 0x120033894    : bis        r3,8,r3         : IntAlu :  D=0x000000000000000f
7556000: system.cpu T0 : 0x120033898    : br         0x1200338dc     : IntAlu : 
7559000: system.cpu T0 : 0x1200338dc    : lda        r16,16(r16)     : IntAlu :  D=0x000000011ff920b8
7561000: system.cpu T0 : 0x1200338e0    : ldq        r2,0(r16)       : MemRead :  D=0x0000000000000000 A=0x11ff920b8
7563000: system.cpu T0 : 0x1200338e4    : bne        r2,0x1200337f8  : IntAlu : 
7563000: system.cpu T0 : 0x1200338e8    : cmpeq      r3,15,r1        : IntAlu :  D=0x0000000000000001
7564000: system.cpu T0 : 0x1200338ec    : beq        r1,0x120033918  : IntAlu : 
7564000: system.cpu T0 : 0x1200338f0    : zapnot     r4,15,r1        : IntAlu :  D=0x0000000000000000
7565000: system.cpu T0 : 0x1200338f4    : cmpult     r31,r1,r2       : IntAlu :  D=0x0000000000000000
7565000: system.cpu T0 : 0x1200338f8    : zapnot     r5,15,r1        : IntAlu :  D=0x0000000000000000
7566000: system.cpu T0 : 0x1200338fc    : cmpult     r31,r1,r1       : IntAlu :  D=0x0000000000000000
7567000: system.cpu T0 : 0x120033900    : bis        r2,r1,r2        : IntAlu :  D=0x0000000000000000
7999000: system.cpu T0 : 0x120033904    : ldq        r1,-31792(r29)  : MemRead :  D=0x00000001200be600 A=0x1200c0bf8
8000000: system.cpu T0 : 0x120033908    : stl        r2,0(r1)        : MemWrite :  D=0x0000000000000000 A=0x1200be600
8000000: system.cpu T0 : 0x12003390c    : lda        r2,1(r31)       : IntAlu :  D=0x0000000000000001
8432000: system.cpu T0 : 0x120033910    : ldq        r1,-31680(r29)  : MemRead :  D=0x00000001200c1a98 A=0x1200c0c68
8433000: system.cpu T0 : 0x120033914    : stl        r2,0(r1)        : MemWrite :  D=0x0000000000000001 A=0x1200c1a98
8433000: system.cpu T0 : 0x120033918    : ret        (r26)           : IntAlu : 
8433000: system.cpu T0 : 0x12001dcb8    : nop        (ldq_u      r31,0(r30)) : No_OpClass : 
8433000: system.cpu T0 : 0x12001dcbc    : nop        (ldq_u      r31,0(r30)) : No_OpClass : 
8434000: system.cpu T0 : 0x12001dcc0    : lda        r1,-29944(r29)  : IntAlu :  D=0x00000001200c1330
8862000: system.cpu T0 : 0x12001dcc4    : ldl        r1,0(r1)        : MemRead :  D=0x0000000000000000 A=0x1200c1330
8864000: system.cpu T0 : 0x12001dcc8    : bne        r1,0x12001de5c  : IntAlu : 
8864000: system.cpu T0 : 0x12001dccc    : lda        r16,296(r30)    : IntAlu :  D=0x000000011ff91e48
8864000: system.cpu T0 : 0x12001dcd0    : nop        (ldq_u      r31,0(r30)) : No_OpClass : 
8865000: system.cpu T0 : 0x12001dcd4    : bsr        r26,0x120030098 : IntAlu :  D=0x000000012001dcd8
9294000: system.cpu T0 : 0x120030098    : lda        r0,339(r31)     : IntAlu :  D=0x0000000000000153
9295000: system.cpu T0 : 0x12003009c    : call_pal   callsys         : IntAlu : 
9301000: system.cpu T0 : 0x1200300a0    : bne        r19,0x1200300a8 : IntAlu : 
9302000: system.cpu T0 : 0x1200300a4    : ret        (r26)           : IntAlu : 
9304000: system.cpu T0 : 0x12001dcd8    : nop        (ldq_u      r31,0(r30)) : No_OpClass : 
9304000: system.cpu T0 : 0x12001dcdc    : nop        (ldq_u      r31,0(r30)) : No_OpClass : 
9304000: system.cpu T0 : 0x12001dce0    : lda        r2,426(r30)     : IntAlu :  D=0x000000011ff91eca
9304000: system.cpu T0 : 0x12001dce4    : beq        r0,0x12001ddc8  : IntAlu : 
9730000: system.cpu T0 : 0x12001ddc8    : bis        r31,r31,r6      : IntAlu :  D=0x0000000000000000
9730000: system.cpu T0 : 0x12001ddcc    : bis        r31,r31,r5      : IntAlu :  D=0x0000000000000000
10153000: system.cpu T0 : 0x12001ddd0    : ldbu       r1,0(r2)        : MemRead :  D=0x0000000000000033 A=0x11ff91eca
10155000: system.cpu T0 : 0x12001ddd4    : sextb      r1,r3           : IntAlu :  D=0x0000000000000033
10156000: system.cpu T0 : 0x12001ddd8    : lda        r1,-48(r3)      : IntAlu :  D=0x0000000000000003
10157000: system.cpu T0 : 0x12001dddc    : and        r1,255,r1       : IntAlu :  D=0x0000000000000003
10158000: system.cpu T0 : 0x12001dde0    : cmpule     r1,9,r1         : IntAlu :  D=0x0000000000000001
10159000: system.cpu T0 : 0x12001dde4    : bne        r1,0x12001dd5c  : IntAlu : 
10591000: system.cpu T0 : 0x12001dd5c    : subl       r3,48,r4        : IntAlu :  D=0x0000000000000003
10591000: system.cpu T0 : 0x12001dd60    : lda        r2,1(r2)        : IntAlu :  D=0x000000011ff91ecb
10593000: system.cpu T0 : 0x12001dd64    : ldbu       r1,0(r2)        : MemRead :  D=0x000000000000002e A=0x11ff91ecb
10595000: system.cpu T0 : 0x12001dd68    : sextb      r1,r3           : IntAlu :  D=0x000000000000002e
10596000: system.cpu T0 : 0x12001dd6c    : lda        r1,-48(r3)      : IntAlu :  D=0xfffffffffffffffe
10597000: system.cpu T0 : 0x12001dd70    : and        r1,255,r1       : IntAlu :  D=0x00000000000000fe
10598000: system.cpu T0 : 0x12001dd74    : cmpule     r1,9,r1         : IntAlu :  D=0x0000000000000000
10599000: system.cpu T0 : 0x12001dd78    : beq        r1,0x12001dda8  : IntAlu : 
11017000: system.cpu T0 : 0x12001dda8    : addl       r6,1,r6         : IntAlu :  D=0x0000000000000001
11017000: system.cpu T0 : 0x12001ddac    : sll        r5,8,r1         : IntAlu :  D=0x0000000000000000
11018000: system.cpu T0 : 0x12001ddb0    : bis        r4,r1,r1        : IntAlu :  D=0x0000000000000003
11019000: system.cpu T0 : 0x12001ddb4    : addl       r31,r1,r5       : IntAlu :  D=0x0000000000000003
11019000: system.cpu T0 : 0x12001ddb8    : cmpeq      r3,46,r1        : IntAlu :  D=0x0000000000000001
11020000: system.cpu T0 : 0x12001ddbc    : beq        r1,0x12001dde8  : IntAlu : 
11020000: system.cpu T0 : 0x12001ddc0    : lda        r2,1(r2)        : IntAlu :  D=0x000000011ff91ecc
11021000: system.cpu T0 : 0x12001ddc4    : br         0x12001ddd0     : IntAlu : 
11025000: system.cpu T0 : 0x12001ddd0    : ldbu       r1,0(r2)        : MemRead :  D=0x0000000000000030 A=0x11ff91ecc
11027000: system.cpu T0 : 0x12001ddd4    : sextb      r1,r3           : IntAlu :  D=0x0000000000000030
11028000: system.cpu T0 : 0x12001ddd8    : lda        r1,-48(r3)      : IntAlu :  D=0x0000000000000000
11029000: system.cpu T0 : 0x12001dddc    : and        r1,255,r1       : IntAlu :  D=0x0000000000000000
11030000: system.cpu T0 : 0x12001dde0    : cmpule     r1,9,r1         : IntAlu :  D=0x0000000000000001
11031000: system.cpu T0 : 0x12001dde4    : bne        r1,0x12001dd5c  : IntAlu : 
11034000: system.cpu T0 : 0x12001dd5c    : subl       r3,48,r4        : IntAlu :  D=0x0000000000000000
11034000: system.cpu T0 : 0x12001dd60    : lda        r2,1(r2)        : IntAlu :  D=0x000000011ff91ecd
11036000: system.cpu T0 : 0x12001dd64    : ldbu       r1,0(r2)        : MemRead :  D=0x000000000000002e A=0x11ff91ecd
11038000: system.cpu T0 : 0x12001dd68    : sextb      r1,r3           : IntAlu :  D=0x000000000000002e
11039000: system.cpu T0 : 0x12001dd6c    : lda        r1,-48(r3)      : IntAlu :  D=0xfffffffffffffffe
11040000: system.cpu T0 : 0x12001dd70    : and        r1,255,r1       : IntAlu :  D=0x00000000000000fe
11041000: system.cpu T0 : 0x12001dd74    : cmpule     r1,9,r1         : IntAlu :  D=0x0000000000000000
11042000: system.cpu T0 : 0x12001dd78    : beq        r1,0x12001dda8  : IntAlu : 
11045000: system.cpu T0 : 0x12001dda8    : addl       r6,1,r6         : IntAlu :  D=0x0000000000000002
11045000: system.cpu T0 : 0x12001ddac    : sll        r5,8,r1         : IntAlu :  D=0x0000000000000300
11046000: system.cpu T0 : 0x12001ddb0    : bis        r4,r1,r1        : IntAlu :  D=0x0000000000000300
11047000: system.cpu T0 : 0x12001ddb4    : addl       r31,r1,r5       : IntAlu :  D=0x0000000000000300
11047000: system.cpu T0 : 0x12001ddb8    : cmpeq      r3,46,r1        : IntAlu :  D=0x0000000000000001
11048000: system.cpu T0 : 0x12001ddbc    : beq        r1,0x12001dde8  : IntAlu : 
11048000: system.cpu T0 : 0x12001ddc0    : lda        r2,1(r2)        : IntAlu :  D=0x000000011ff91ece
11049000: system.cpu T0 : 0x12001ddc4    : br         0x12001ddd0     : IntAlu : 
11053000: system.cpu T0 : 0x12001ddd0    : ldbu       r1,0(r2)        : MemRead :  D=0x0000000000000030 A=0x11ff91ece
11055000: system.cpu T0 : 0x12001ddd4    : sextb      r1,r3           : IntAlu :  D=0x0000000000000030
11056000: system.cpu T0 : 0x12001ddd8    : lda        r1,-48(r3)      : IntAlu :  D=0x0000000000000000
11057000: system.cpu T0 : 0x12001dddc    : and        r1,255,r1       : IntAlu :  D=0x0000000000000000
11058000: system.cpu T0 : 0x12001dde0    : cmpule     r1,9,r1         : IntAlu :  D=0x0000000000000001
11059000: system.cpu T0 : 0x12001dde4    : bne        r1,0x12001dd5c  : IntAlu : 
11062000: system.cpu T0 : 0x12001dd5c    : subl       r3,48,r4        : IntAlu :  D=0x0000000000000000
11062000: system.cpu T0 : 0x12001dd60    : lda        r2,1(r2)        : IntAlu :  D=0x000000011ff91ecf
11064000: system.cpu T0 : 0x12001dd64    : ldbu       r1,0(r2)        : MemRead :  D=0x0000000000000000 A=0x11ff91ecf
11066000: system.cpu T0 : 0x12001dd68    : sextb      r1,r3           : IntAlu :  D=0x0000000000000000
11067000: system.cpu T0 : 0x12001dd6c    : lda        r1,-48(r3)      : IntAlu :  D=0xffffffffffffffd0
11068000: system.cpu T0 : 0x12001dd70    : and        r1,255,r1       : IntAlu :  D=0x00000000000000d0
11069000: system.cpu T0 : 0x12001dd74    : cmpule     r1,9,r1         : IntAlu :  D=0x0000000000000000
11070000: system.cpu T0 : 0x12001dd78    : beq        r1,0x12001dda8  : IntAlu : 
11073000: system.cpu T0 : 0x12001dda8    : addl       r6,1,r6         : IntAlu :  D=0x0000000000000003
11073000: system.cpu T0 : 0x12001ddac    : sll        r5,8,r1         : IntAlu :  D=0x0000000000030000
11074000: system.cpu T0 : 0x12001ddb0    : bis        r4,r1,r1        : IntAlu :  D=0x0000000000030000
11075000: system.cpu T0 : 0x12001ddb4    : addl       r31,r1,r5       : IntAlu :  D=0x0000000000030000
11075000: system.cpu T0 : 0x12001ddb8    : cmpeq      r3,46,r1        : IntAlu :  D=0x0000000000000000
11076000: system.cpu T0 : 0x12001ddbc    : beq        r1,0x12001dde8  : IntAlu : 
11079000: system.cpu T0 : 0x12001dde8    : cmple      r6,2,r1         : IntAlu :  D=0x0000000000000000
11080000: system.cpu T0 : 0x12001ddec    : beq        r1,0x12001de00  : IntAlu : 
11084000: system.cpu T0 : 0x12001de00    : addl       r31,r5,r3       : IntAlu :  D=0x0000000000030000
11085000: system.cpu T0 : 0x12001de04    : blt        r3,0x12001de4c  : IntAlu : 
11508000: system.cpu T0 : 0x12001de08    : ldq        r1,-30288(r29)  : MemRead :  D=0x00000001200c1a80 A=0x1200c11d8
11511000: system.cpu T0 : 0x12001de0c    : ldl        r1,0(r1)        : MemRead :  D=0x0000000000000000 A=0x1200c1a80
11513000: system.cpu T0 : 0x12001de10    : beq        r1,0x12001de24  : IntAlu : 
11517000: system.cpu T0 : 0x12001de24    : ldq        r1,-30288(r29)  : MemRead :  D=0x00000001200c1a80 A=0x1200c11d8
11518000: system.cpu T0 : 0x12001de28    : stl        r3,0(r1)        : MemWrite :  D=0x0000000000030000 A=0x1200c1a80
11518000: system.cpu T0 : 0x12001de2c    : ldah       r1,2(r31)       : IntAlu :  D=0x0000000000020000
11518000: system.cpu T0 : 0x12001de30    : lda        r1,1561(r1)     : IntAlu :  D=0x0000000000020619
11518000: system.cpu T0 : 0x12001de34    : cmple      r3,r1,r1        : IntAlu :  D=0x0000000000000000
11519000: system.cpu T0 : 0x12001de38    : beq        r1,0x12001de5c  : IntAlu : 
11941000: system.cpu T0 : 0x12001de5c    : nop        (ldq_u      r31,0(r30)) : No_OpClass : 
11941000: system.cpu T0 : 0x12001de60    : bsr        r26,0x12001e430 : IntAlu :  D=0x000000012001de64
12371000: system.cpu T0 : 0x12001e430    : lda        r30,-16(r30)    : IntAlu :  D=0x000000011ff91d10
12371000: system.cpu T0 : 0x12001e434    : stq        r26,0(r30)      : MemWrite :  D=0x000000012001de64 A=0x11ff91d10
12371000: system.cpu T0 : 0x12001e438    : lda        r16,16(r31)     : IntAlu :  D=0x0000000000000010
12371000: system.cpu T0 : 0x12001e43c    : lda        r17,16(r31)     : IntAlu :  D=0x0000000000000010
12380000: system.cpu T0 : 0x12001e440    : bsr        r26,0x12001e1cc : IntAlu :  D=0x000000012001e444
12806000: system.cpu T0 : 0x12001e1cc    : lda        r30,-80(r30)    : IntAlu :  D=0x000000011ff91cc0
12806000: system.cpu T0 : 0x12001e1d0    : stq        r26,0(r30)      : MemWrite :  D=0x000000012001e444 A=0x11ff91cc0
12806000: system.cpu T0 : 0x12001e1d4    : stq        r9,8(r30)       : MemWrite :  D=0x0000000000000000 A=0x11ff91cc8
12806000: system.cpu T0 : 0x12001e1d8    : stq        r10,16(r30)     : MemWrite :  D=0x0000000000000000 A=0x11ff91cd0
12807000: system.cpu T0 : 0x12001e1dc    : stq        r11,24(r30)     : MemWrite :  D=0x0000000000000000 A=0x11ff91cd8
12807000: system.cpu T0 : 0x12001e1e0    : stq        r12,32(r30)     : MemWrite :  D=0x000000012001e450 A=0x11ff91ce0
12807000: system.cpu T0 : 0x12001e1e4    : stq        r13,40(r30)     : MemWrite :  D=0x000000012001e4c0 A=0x11ff91ce8
12807000: system.cpu T0 : 0x12001e1e8    : stq        r14,48(r30)     : MemWrite :  D=0x0000000000000000 A=0x11ff91cf0
12808000: system.cpu T0 : 0x12001e1ec    : stq        r15,56(r30)     : MemWrite :  D=0x0000000000000000 A=0x11ff91cf8
12808000: system.cpu T0 : 0x12001e1f0    : bis        r31,r16,r27     : IntAlu :  D=0x0000000000000010
13247000: system.cpu T0 : 0x12001e1f4    : ldq        r1,-31240(r29)  : MemRead :  D=0x00000001200c1a28 A=0x1200c0e20
13672000: system.cpu T0 : 0x12001e1f8    : ldq        r24,0(r1)       : MemRead :  D=0x0000000120000040 A=0x1200c1a28
13674000: system.cpu T0 : 0x12001e1fc    : beq        r24,0x12001e408 : IntAlu : 
14101000: system.cpu T0 : 0x12001e200    : ldq        r1,-30552(r29)  : MemRead :  D=0x00000001200c1a60 A=0x1200c10d0
14116000: system.cpu T0 : 0x12001e204    : ldq        r1,0(r1)        : MemRead :  D=0x0000000000000005 A=0x1200c1a60
14118000: system.cpu T0 : 0x12001e208    : s8subq     r1,r1,r1        : IntAlu :  D=0x0000000000000023
14119000: system.cpu T0 : 0x12001e20c    : s8addq     r1,r24,r2       : IntAlu :  D=0x0000000120000158
14120000: system.cpu T0 : 0x12001e210    : cmpule     r2,r24,r1       : IntAlu :  D=0x0000000000000000
14121000: system.cpu T0 : 0x12001e214    : bne        r1,0x12001e408  : IntAlu : 
14121000: system.cpu T0 : 0x12001e218    : ldl        r1,0(r24)       : MemRead :  A=0x120000040
14550000: system.cpu T0 : 0x12001e218    : ldl        r1,0(r24)       : MemRead :  D=0x0000000000000001 A=0x120000040
14552000: system.cpu T0 : 0x12001e21c    : cmpeq      r1,7,r1         : IntAlu :  D=0x0000000000000000
14553000: system.cpu T0 : 0x12001e220    : beq        r1,0x12001e260  : IntAlu : 
14978000: system.cpu T0 : 0x12001e260    : lda        r24,56(r24)     : IntAlu :  D=0x0000000120000078
14979000: system.cpu T0 : 0x12001e264    : cmpule     r2,r24,r1       : IntAlu :  D=0x0000000000000000
14980000: system.cpu T0 : 0x12001e268    : beq        r1,0x12001e228  : IntAlu : 
14984000: system.cpu T0 : 0x12001e228    : ldl        r1,0(r24)       : MemRead :  D=0x0000000000000001 A=0x120000078
14986000: system.cpu T0 : 0x12001e22c    : cmpeq      r1,7,r1         : IntAlu :  D=0x0000000000000000
14987000: system.cpu T0 : 0x12001e230    : beq        r1,0x12001e260  : IntAlu : 
14990000: system.cpu T0 : 0x12001e260    : lda        r24,56(r24)     : IntAlu :  D=0x00000001200000b0
14991000: system.cpu T0 : 0x12001e264    : cmpule     r2,r24,r1       : IntAlu :  D=0x0000000000000000
14992000: system.cpu T0 : 0x12001e268    : beq        r1,0x12001e228  : IntAlu : 
15418000: system.cpu T0 : 0x12001e228    : ldl        r1,0(r24)       : MemRead :  D=0x0000000000000004 A=0x1200000b0
15420000: system.cpu T0 : 0x12001e22c    : cmpeq      r1,7,r1         : IntAlu :  D=0x0000000000000000
15421000: system.cpu T0 : 0x12001e230    : beq        r1,0x12001e260  : IntAlu : 
15424000: system.cpu T0 : 0x12001e260    : lda        r24,56(r24)     : IntAlu :  D=0x00000001200000e8
15425000: system.cpu T0 : 0x12001e264    : cmpule     r2,r24,r1       : IntAlu :  D=0x0000000000000000
15426000: system.cpu T0 : 0x12001e268    : beq        r1,0x12001e228  : IntAlu : 
15852000: system.cpu T0 : 0x12001e228    : ldl        r1,0(r24)       : MemRead :  D=0x0000000000000007 A=0x1200000e8
15854000: system.cpu T0 : 0x12001e22c    : cmpeq      r1,7,r1         : IntAlu :  D=0x0000000000000001
15855000: system.cpu T0 : 0x12001e230    : beq        r1,0x12001e260  : IntAlu : 
16281000: system.cpu T0 : 0x12001e234    : ldq        r15,40(r24)     : MemRead :  D=0x0000000000000054 A=0x120000110
16288000: system.cpu T0 : 0x12001e238    : ldq        r1,32(r24)      : MemRead :  D=0x0000000000000020 A=0x120000108
16290000: system.cpu T0 : 0x12001e23c    : stq        r1,72(r30)      : MemWrite :  D=0x0000000000000020 A=0x11ff91d08
16291000: system.cpu T0 : 0x12001e240    : ldq        r25,16(r24)     : MemRead :  D=0x00000001200be000 A=0x1200000f8
16293000: system.cpu T0 : 0x12001e244    : stq        r25,64(r30)     : MemWrite :  D=0x00000001200be000 A=0x11ff91d00
16294000: system.cpu T0 : 0x12001e248    : ldq        r25,48(r24)     : MemRead :  D=0x0000000000000008 A=0x120000118
16296000: system.cpu T0 : 0x12001e24c    : cmpule     r17,r25,r1      : IntAlu :  D=0x0000000000000000
16296000: system.cpu T0 : 0x12001e250    : bis        r31,r25,r14     : IntAlu :  D=0x0000000000000008
16297000: system.cpu T0 : 0x12001e254    : cmoveq     r1,r17,r14      : IntAlu :  D=0x0000000000000010
16297000: system.cpu T0 : 0x12001e258    : bne        r25,0x12001e270 : IntAlu : 
16300000: system.cpu T0 : 0x12001e270    : lda        r24,-1(r25)     : IntAlu :  D=0x0000000000000007
16301000: system.cpu T0 : 0x12001e274    : addq       r24,r27,r24     : IntAlu :  D=0x0000000000000017
16301000: system.cpu T0 : 0x12001e278    : nop        (ldq_u      r31,0(r30)) : No_OpClass : 
16301000: system.cpu T0 : 0x12001e27c    : bsr        r23,__divqu     : IntAlu :  D=0x000000012001e280
16725000: system.cpu T0 : 0x1200318b0    : lda        r30,-64(r30)    : IntAlu :  D=0x000000011ff91c80
16725000: system.cpu T0 : 0x1200318b4    : stt        f0,0(r30)       : MemWrite :  D=0x0000000000000000 A=0x11ff91c80
16728000: system.cpu T0 : 0x1200318b8    : excb                       : No_OpClass : 
16728000: system.cpu T0 : 0x1200318bc    : beq        r25,0x120031a40 : IntAlu : 
16734000: system.cpu T0 : 0x1200318c0    : stt        f1,8(r30)       : MemWrite :  D=0x0000000000000000 A=0x11ff91c88
16734000: system.cpu T0 : 0x1200318c4    : stt        f3,48(r30)      : MemWrite :  D=0x0000000000000000 A=0x11ff91cb0
16737000: system.cpu T0 : 0x1200318c8    : mf_fpcr    f106,f3         : FloatAdd :  D=0x0000000000000000
16737000: system.cpu T0 : 0x1200318cc    : itoft      r24,f0          : FloatCvt :  D=0x0000000000000017
16737000: system.cpu T0 : 0x1200318d0    : itoft      r25,f1          : FloatCvt :  D=0x0000000000000008
16738000: system.cpu T0 : 0x1200318d4    : cvtqt      f0,f0           : FloatAdd :  D=0x4037000000000000
16738000: system.cpu T0 : 0x1200318d8    : cvtqt      f1,f1           : FloatAdd :  D=0x4020000000000000
16738000: system.cpu T0 : 0x1200318dc    : blt        r24,0x120031920 : IntAlu : 
16739000: system.cpu T0 : 0x1200318e0    : divt/c     f0,f1,f0        : FloatDiv :  D=0x4007000000000000
17156000: system.cpu T0 : 0x1200318e4    : ldt        f1,8(r30)       : MemRead :  D=0x0000000000000000 A=0x11ff91c88
17156000: system.cpu T0 : 0x1200318e8    : blt        r25,0x120031a20 : IntAlu : 
17156000: system.cpu T0 : 0x1200318ec    : srl        r24,53,r28      : IntAlu :  D=0x0000000000000000
17156000: system.cpu T0 : 0x1200318f0    : bne        r28,0x120031950 : IntAlu : 
17157000: system.cpu T0 : 0x1200318f4    : cvttq/c    f0,f0           : FloatAdd :  D=0x0000000000000002
17160000: system.cpu T0 : 0x1200318f8    : excb                       : No_OpClass : 
17163000: system.cpu T0 : 0x1200318fc    : mt_fpcr    f3,f106         : FloatAdd :  D=0x0000000000000000
17163000: system.cpu T0 : 0x120031900    : ftoit      f0,r27          : FloatCvt :  D=0x0000000000000002
17164000: system.cpu T0 : 0x120031904    : ldt        f0,0(r30)       : MemRead :  D=0x0000000000000000 A=0x11ff91c80
17165000: system.cpu T0 : 0x120031908    : ldt        f3,48(r30)      : MemRead :  D=0x0000000000000000 A=0x11ff91cb0
17165000: system.cpu T0 : 0x12003190c    : lda        r30,64(r30)     : IntAlu :  D=0x000000011ff91cc0
17165000: system.cpu T0 : 0x120031910    : ret        (r23)           : IntAlu : 
17167000: system.cpu T0 : 0x12001e280    : bis        r31,r25,r12     : IntAlu :  D=0x0000000000000008
17167000: system.cpu T0 : 0x12001e284    : mulq       r27,r25,r13     : IntMult :  D=0x0000000000000010
17167000: system.cpu T0 : 0x12001e288    : ldah       r1,0(r29)       : IntAlu :  D=0x00000001200c8828
17591000: system.cpu T0 : 0x12001e28c    : ldq        r16,-30120(r1)  : MemRead :  D=0x0000000000000800 A=0x1200c1280
17593000: system.cpu T0 : 0x12001e290    : lda        r16,1712(r16)   : IntAlu :  D=0x0000000000000eb0
17594000: system.cpu T0 : 0x12001e294    : addq       r16,r15,r16     : IntAlu :  D=0x0000000000000f04
17595000: system.cpu T0 : 0x12001e298    : addq       r16,r14,r16     : IntAlu :  D=0x0000000000000f14
17596000: system.cpu T0 : 0x12001e29c    : addq       r16,r13,r16     : IntAlu :  D=0x0000000000000f24
17596000: system.cpu T0 : 0x12001e2a0    : nop        (ldq_u      r31,0(r30)) : No_OpClass : 
17596000: system.cpu T0 : 0x12001e2a4    : bsr        r26,0x120030898 : IntAlu :  D=0x000000012001e2a8
18019000: system.cpu T0 : 0x120030898    : lda        r30,-32(r30)    : IntAlu :  D=0x000000011ff91ca0
18019000: system.cpu T0 : 0x12003089c    : stq        r26,0(r30)      : MemWrite :  D=0x000000012001e2a8 A=0x11ff91ca0
18019000: system.cpu T0 : 0x1200308a0    : stq        r9,8(r30)       : MemWrite :  D=0x0000000000000000 A=0x11ff91ca8
18019000: system.cpu T0 : 0x1200308a4    : stq        r10,16(r30)     : MemWrite :  D=0x0000000000000000 A=0x11ff91cb0
18020000: system.cpu T0 : 0x1200308a8    : bis        r31,r16,r10     : IntAlu :  D=0x0000000000000f24
18450000: system.cpu T0 : 0x1200308ac    : ldq        r1,-30600(r29)  : MemRead :  D=0x00000001200c1b20 A=0x1200c10a0
18875000: system.cpu T0 : 0x1200308b0    : ldq        r1,0(r1)        : MemRead :  D=0x0000000000000000 A=0x1200c1b20
18877000: system.cpu T0 : 0x1200308b4    : beq        r1,0x1200308c4  : IntAlu : 
18880000: system.cpu T0 : 0x1200308c4    : bis        r31,r31,r16     : IntAlu :  D=0x0000000000000000
18880000: system.cpu T0 : 0x1200308c8    : nop        (ldq_u      r31,0(r30)) : No_OpClass : 
18880000: system.cpu T0 : 0x1200308cc    : bsr        r26,0x120061918 : IntAlu :  D=0x00000001200308d0
19310000: system.cpu T0 : 0x120061918    : subq       r30,8,r30       : IntAlu :  D=0x000000011ff91c98
19310000: system.cpu T0 : 0x12006191c    : stq        r16,0(r30)      : MemWrite :  D=0x0000000000000000 A=0x11ff91c98
19310000: system.cpu T0 : 0x120061920    : lda        r0,17(r31)      : IntAlu :  D=0x0000000000000011
19311000: system.cpu T0 : 0x120061924    : call_pal   callsys         : IntAlu : 
19318000: system.cpu T0 : 0x120061928    : ldq        r16,0(r30)      : MemRead :  D=0x0000000000000000 A=0x11ff91c98
19318000: system.cpu T0 : 0x12006192c    : bne        r19,0x120061958 : IntAlu : 
19318000: system.cpu T0 : 0x120061930    : beq        r0,0x120061944  : IntAlu : 
19320000: system.cpu T0 : 0x120061934    : cmoveq     r16,r0,r16      : IntAlu :  D=0x000000012033a000
19321000: system.cpu T0 : 0x120061938    : xor        r16,r0,r1       : IntAlu :  D=0x0000000000000000
19322000: system.cpu T0 : 0x12006193c    : bne        r1,0x120061954  : IntAlu : 
19736000: system.cpu T0 : 0x120061940    : bis        r31,r31,r0      : IntAlu :  D=0x0000000000000000
19737000: system.cpu T0 : 0x120061944    : ldq        r28,-30600(r29) : MemRead :  D=0x00000001200c1b20 A=0x1200c10a0
19738000: system.cpu T0 : 0x120061948    : stq        r16,0(r28)      : MemWrite :  D=0x000000012033a000 A=0x1200c1b20
19738000: system.cpu T0 : 0x12006194c    : addq       r30,8,r30       : IntAlu :  D=0x000000011ff91ca0
19738000: system.cpu T0 : 0x120061950    : ret        (r26)           : IntAlu : 
19740000: system.cpu T0 : 0x1200308d0    : nop        (ldq_u      r31,0(r30)) : No_OpClass : 
19740000: system.cpu T0 : 0x1200308d4    : nop        (ldq_u      r31,0(r30)) : No_OpClass : 
19740000: system.cpu T0 : 0x1200308d8    : blt        r0,0x12003090c  : IntAlu : 
19741000: system.cpu T0 : 0x1200308dc    : bne        r10,0x1200308ec : IntAlu : 
19745000: system.cpu T0 : 0x1200308ec    : ldq        r1,-30600(r29)  : MemRead :  D=0x00000001200c1b20 A=0x1200c10a0
19748000: system.cpu T0 : 0x1200308f0    : ldq        r9,0(r1)        : MemRead :  D=0x000000012033a000 A=0x1200c1b20
19750000: system.cpu T0 : 0x1200308f4    : addq       r9,r10,r16      : IntAlu :  D=0x000000012033af24
19750000: system.cpu T0 : 0x1200308f8    : nop        (ldq_u      r31,0(r30)) : No_OpClass : 
19750000: system.cpu T0 : 0x1200308fc    : bsr        r26,0x120061918 : IntAlu :  D=0x0000000120030900
19750000: system.cpu T0 : 0x120061918    : subq       r30,8,r30       : IntAlu :  D=0x000000011ff91c98
19751000: system.cpu T0 : 0x12006191c    : stq        r16,0(r30)      : MemWrite :  D=0x000000012033af24 A=0x11ff91c98
19751000: system.cpu T0 : 0x120061920    : lda        r0,17(r31)      : IntAlu :  D=0x0000000000000011
19752000: system.cpu T0 : 0x120061924    : call_pal   callsys         : IntAlu : 
19759000: system.cpu T0 : 0x120061928    : ldq        r16,0(r30)      : MemRead :  D=0x000000012033af24 A=0x11ff91c98
19759000: system.cpu T0 : 0x12006192c    : bne        r19,0x120061958 : IntAlu : 
19759000: system.cpu T0 : 0x120061930    : beq        r0,0x120061944  : IntAlu : 
19761000: system.cpu T0 : 0x120061934    : cmoveq     r16,r0,r16      : IntAlu :  D=0x000000012033af24
19762000: system.cpu T0 : 0x120061938    : xor        r16,r0,r1       : IntAlu :  D=0x0000000000000000
19763000: system.cpu T0 : 0x12006193c    : bne        r1,0x120061954  : IntAlu : 
19763000: system.cpu T0 : 0x120061940    : bis        r31,r31,r0      : IntAlu :  D=0x0000000000000000
19764000: system.cpu T0 : 0x120061944    : ldq        r28,-30600(r29) : MemRead :  D=0x00000001200c1b20 A=0x1200c10a0
19765000: system.cpu T0 : 0x120061948    : stq        r16,0(r28)      : MemWrite :  D=0x000000012033af24 A=0x1200c1b20
19765000: system.cpu T0 : 0x12006194c    : addq       r30,8,r30       : IntAlu :  D=0x000000011ff91ca0
19765000: system.cpu T0 : 0x120061950    : ret        (r26)           : IntAlu : 
20169000: system.cpu T0 : 0x120030900    : nop        (ldq_u      r31,0(r30)) : No_OpClass : 
20169000: system.cpu T0 : 0x120030904    : nop        (ldq_u      r31,0(r30)) : No_OpClass : 
20169000: system.cpu T0 : 0x120030908    : bge        r0,0x120030910  : IntAlu : 
20172000: system.cpu T0 : 0x120030910    : bis        r31,r9,r0       : IntAlu :  D=0x000000012033a000
20173000: system.cpu T0 : 0x120030914    : ldq        r26,0(r30)      : MemRead :  D=0x000000012001e2a8 A=0x11ff91ca0
20174000: system.cpu T0 : 0x120030918    : ldq        r9,8(r30)       : MemRead :  D=0x0000000000000000 A=0x11ff91ca8
20174000: system.cpu T0 : 0x12003091c    : ldq        r10,16(r30)     : MemRead :  D=0x0000000000000000 A=0x11ff91cb0
20174000: system.cpu T0 : 0x120030920    : lda        r30,32(r30)     : IntAlu :  D=0x000000011ff91cc0
20175000: system.cpu T0 : 0x120030924    : ret        (r26)           : IntAlu : 
20176000: system.cpu T0 : 0x12001e2a8    : nop        (ldq_u      r31,0(r30)) : No_OpClass : 
20176000: system.cpu T0 : 0x12001e2ac    : nop        (ldq_u      r31,0(r30)) : No_OpClass : 
20176000: system.cpu T0 : 0x12001e2b0    : addq       r0,r14,r0       : IntAlu :  D=0x000000012033a010
20177000: system.cpu T0 : 0x12001e2b4    : lda        r0,1711(r0)     : IntAlu :  D=0x000000012033a6bf
20177000: system.cpu T0 : 0x12001e2b8    : subq       r31,r14,r1      : IntAlu :  D=0xfffffffffffffff0
20178000: system.cpu T0 : 0x12001e2bc    : and        r0,r1,r11       : IntAlu :  D=0x000000012033a6b0
20600000: system.cpu T0 : 0x12001e2c0    : ldah       r9,0(r29)       : IntAlu :  D=0x00000001200c8828
20600000: system.cpu T0 : 0x12001e2c4    : lda        r1,62(r31)      : IntAlu :  D=0x000000000000003e
20601000: system.cpu T0 : 0x12001e2c8    : stq        r1,-25272(r9)   : MemWrite :  D=0x000000000000003e A=0x1200c2570
20607000: system.cpu T0 : 0x12001e2c8    : stq        r1,-25272(r9)   : MemWrite :  D=0x000000000000003e A=0x1200c2570
20607000: system.cpu T0 : 0x12001e2cc    : lda        r9,-25272(r9)   : IntAlu :  D=0x00000001200c2570
20607000: system.cpu T0 : 0x12001e2d0    : addq       r11,r13,r16     : IntAlu :  D=0x000000012033a6c0
20608000: system.cpu T0 : 0x12001e2d4    : stq        r16,32(r9)      : MemWrite :  D=0x000000012033a6c0 A=0x1200c2590
20608000: system.cpu T0 : 0x12001e2d8    : ldah       r10,0(r29)      : IntAlu :  D=0x00000001200c8828
20609000: system.cpu T0 : 0x12001e2dc    : lda        r10,-23208(r10) : IntAlu :  D=0x00000001200c2d80
20609000: system.cpu T0 : 0x12001e2e0    : stq        r13,1080(r10)   : MemWrite :  D=0x0000000000000010 A=0x1200c31b8
20609000: system.cpu T0 : 0x12001e2e4    : lda        r1,1(r31)       : IntAlu :  D=0x0000000000000001
20610000: system.cpu T0 : 0x12001e2e8    : stb        r1,40(r9)       : MemWrite :  D=0x0000000000000001 A=0x1200c2598
20611000: system.cpu T0 : 0x12001e2ec    : ldq        r17,64(r30)     : MemRead :  D=0x00000001200be000 A=0x11ff91d00
20612000: system.cpu T0 : 0x12001e2f0    : ldq        r18,72(r30)     : MemRead :  D=0x0000000000000020 A=0x11ff91d08
20612000: system.cpu T0 : 0x12001e2f4    : nop        (ldq_u      r31,0(r30)) : No_OpClass : 
20612000: system.cpu T0 : 0x12001e2f8    : bsr        r26,memcpy      : IntAlu :  D=0x000000012001e2fc
21060000: system.cpu T0 : 0x12002ed20    : bis        r31,r16,r0      : IntAlu :  D=0x000000012033a6c0
21060000: system.cpu T0 : 0x12002ed24    : ble        r18,0x12002ef50 : IntAlu : 
21060000: system.cpu T0 : 0x12002ed28    : xor        r16,r17,r1      : IntAlu :  D=0x00000000003846c0
21061000: system.cpu T0 : 0x12002ed2c    : and        r1,7,r1         : IntAlu :  D=0x0000000000000000
21062000: system.cpu T0 : 0x12002ed30    : bne        r1,0x12002eeb0  : IntAlu : 
21062000: system.cpu T0 : 0x12002ed34    : and        r16,7,r1        : IntAlu :  D=0x0000000000000000
21063000: system.cpu T0 : 0x12002ed38    : beq        r1,0x12002ed60  : IntAlu : 
21485000: system.cpu T0 : 0x12002ed60    : cmple      r18,127,r1      : IntAlu :  D=0x0000000000000001
21486000: system.cpu T0 : 0x12002ed64    : bne        r1,0x12002ee40  : IntAlu : 
21918000: system.cpu T0 : 0x12002ee40    : subq       r18,8,r18       : IntAlu :  D=0x0000000000000018
21919000: system.cpu T0 : 0x12002ee44    : blt        r18,0x12002ee70 : IntAlu : 
21919000: system.cpu T0 : 0x12002ee48    : nop        (bis        r31,r31,r31) : No_OpClass : 
21919000: system.cpu T0 : 0x12002ee4c    : nop        (bis        r31,r31,r31) : No_OpClass : 
22351000: system.cpu T0 : 0x12002ee50    : ldq        r1,0(r17)       : MemRead :  D=0x00000001200c06a8 A=0x1200be000
22351000: system.cpu T0 : 0x12002ee54    : subq       r18,8,r18       : IntAlu :  D=0x0000000000000010
22351000: system.cpu T0 : 0x12002ee58    : addq       r17,8,r17       : IntAlu :  D=0x00000001200be008
22351000: system.cpu T0 : 0x12002ee5c    : nop        (bis        r31,r31,r31) : No_OpClass : 
22353000: system.cpu T0 : 0x12002ee60    : stq        r1,0(r16)       : MemWrite :  D=0x00000001200c06a8 A=0x12033a6c0
22359000: system.cpu T0 : 0x12002ee60    : stq        r1,0(r16)       : MemWrite :  D=0x00000001200c06a8 A=0x12033a6c0
22359000: system.cpu T0 : 0x12002ee64    : addq       r16,8,r16       : IntAlu :  D=0x000000012033a6c8
22359000: system.cpu T0 : 0x12002ee68    : bge        r18,0x12002ee50 : IntAlu : 
22363000: system.cpu T0 : 0x12002ee50    : ldq        r1,0(r17)       : MemRead :  D=0x00000001200c06a8 A=0x1200be008
22363000: system.cpu T0 : 0x12002ee54    : subq       r18,8,r18       : IntAlu :  D=0x0000000000000008
22363000: system.cpu T0 : 0x12002ee58    : addq       r17,8,r17       : IntAlu :  D=0x00000001200be010
22363000: system.cpu T0 : 0x12002ee5c    : nop        (bis        r31,r31,r31) : No_OpClass : 
22365000: system.cpu T0 : 0x12002ee60    : stq        r1,0(r16)       : MemWrite :  D=0x00000001200c06a8 A=0x12033a6c8
22365000: system.cpu T0 : 0x12002ee64    : addq       r16,8,r16       : IntAlu :  D=0x000000012033a6d0
22365000: system.cpu T0 : 0x12002ee68    : bge        r18,0x12002ee50 : IntAlu : 
22369000: system.cpu T0 : 0x12002ee50    : ldq        r1,0(r17)       : MemRead :  D=0x00000001200c06c8 A=0x1200be010
22369000: system.cpu T0 : 0x12002ee54    : subq       r18,8,r18       : IntAlu :  D=0x0000000000000000
22369000: system.cpu T0 : 0x12002ee58    : addq       r17,8,r17       : IntAlu :  D=0x00000001200be018
22369000: system.cpu T0 : 0x12002ee5c    : nop        (bis        r31,r31,r31) : No_OpClass : 
22371000: system.cpu T0 : 0x12002ee60    : stq        r1,0(r16)       : MemWrite :  D=0x00000001200c06c8 A=0x12033a6d0
22371000: system.cpu T0 : 0x12002ee64    : addq       r16,8,r16       : IntAlu :  D=0x000000012033a6d8
22371000: system.cpu T0 : 0x12002ee68    : bge        r18,0x12002ee50 : IntAlu : 
22375000: system.cpu T0 : 0x12002ee50    : ldq        r1,0(r17)       : MemRead :  D=0x00000001200c06b0 A=0x1200be018
22375000: system.cpu T0 : 0x12002ee54    : subq       r18,8,r18       : IntAlu :  D=0xfffffffffffffff8
22375000: system.cpu T0 : 0x12002ee58    : addq       r17,8,r17       : IntAlu :  D=0x00000001200be020
22375000: system.cpu T0 : 0x12002ee5c    : nop        (bis        r31,r31,r31) : No_OpClass : 
22377000: system.cpu T0 : 0x12002ee60    : stq        r1,0(r16)       : MemWrite :  D=0x00000001200c06b0 A=0x12033a6d8
22377000: system.cpu T0 : 0x12002ee64    : addq       r16,8,r16       : IntAlu :  D=0x000000012033a6e0
22377000: system.cpu T0 : 0x12002ee68    : bge        r18,0x12002ee50 : IntAlu : 
22377000: system.cpu T0 : 0x12002ee6c    : nop        (bis        r31,r31,r31) : No_OpClass : 
22378000: system.cpu T0 : 0x12002ee70    : addq       r18,8,r18       : IntAlu :  D=0x0000000000000000
22379000: system.cpu T0 : 0x12002ee74    : ble        r18,0x12002ef50 : IntAlu : 
22805000: system.cpu T0 : 0x12002ef50    : ret        (r26)           : IntAlu : 
22808000: system.cpu T0 : 0x12001e2fc    : nop        (ldq_u      r31,0(r30)) : No_OpClass : 
23230000: system.cpu T0 : 0x12001e300    : nop        (ldq_u      r31,0(r30)) : No_OpClass : 
23230000: system.cpu T0 : 0x12001e304    : lda        r9,16(r9)       : IntAlu :  D=0x00000001200c2580
23231000: system.cpu T0 : 0x12001e308    : stq        r9,0(r11)       : MemWrite :  D=0x00000001200c2580 A=0x12033a6b0
23231000: system.cpu T0 : 0x12001e30c    : bis        r31,r11,r16     : IntAlu :  D=0x000000012033a6b0
23234000: system.cpu T0 : 0x12001e310    : call_pal   wruniq          : IntAlu :  D=0x000000012033a6b0
23234000: system.cpu T0 : 0x12001e314    : stq        r12,1064(r10)   : MemWrite :  D=0x0000000000000008 A=0x1200c31a8
23234000: system.cpu T0 : 0x12001e318    : stq        r15,1056(r10)   : MemWrite :  D=0x0000000000000054 A=0x1200c31a0
23236000: system.cpu T0 : 0x12001e31c    : ldq        r27,64(r30)     : MemRead :  D=0x00000001200be000 A=0x11ff91d00
23238000: system.cpu T0 : 0x12001e320    : stq        r27,1040(r10)   : MemWrite :  D=0x00000001200be000 A=0x1200c3190
23240000: system.cpu T0 : 0x12001e324    : ldq        r1,72(r30)      : MemRead :  D=0x0000000000000020 A=0x11ff91d08
23242000: system.cpu T0 : 0x12001e328    : stq        r1,1048(r10)    : MemWrite :  D=0x0000000000000020 A=0x1200c3198
23672000: system.cpu T0 : 0x12001e32c    : ldq        r2,800(r10)     : MemRead :  D=0x0000000000000000 A=0x1200c30a0
23672000: system.cpu T0 : 0x12001e330    : lda        r1,-3(r31)      : IntAlu :  D=0xfffffffffffffffd
23672000: system.cpu T0 : 0x12001e334    : sll        r1,32,r1        : IntAlu :  D=0xfffffffd00000000
23672000: system.cpu T0 : 0x12001e338    : lda        r1,-1(r1)       : IntAlu :  D=0xfffffffcffffffff
23674000: system.cpu T0 : 0x12001e33c    : and        r2,r1,r2        : IntAlu :  D=0x0000000000000000
23675000: system.cpu T0 : 0x12001e340    : stq        r2,800(r10)     : MemWrite :  D=0x0000000000000000 A=0x1200c30a0
23675000: system.cpu T0 : 0x12001e344    : lda        r3,1(r31)       : IntAlu :  D=0x0000000000000001
23676000: system.cpu T0 : 0x12001e348    : stq        r3,1088(r10)    : MemWrite :  D=0x0000000000000001 A=0x1200c31c0
23676000: system.cpu T0 : 0x12001e34c    : ldah       r2,0(r29)       : IntAlu :  D=0x00000001200c8828
23676000: system.cpu T0 : 0x12001e350    : lda        r1,64(r31)      : IntAlu :  D=0x0000000000000040
23677000: system.cpu T0 : 0x12001e354    : stq        r1,-24248(r2)   : MemWrite :  D=0x0000000000000040 A=0x1200c2970
24128000: system.cpu T0 : 0x12001e358    : ldq        r1,-31864(r29)  : MemRead :  D=0x00000001200c19a8 A=0x1200c0bb0
24129000: system.cpu T0 : 0x12001e35c    : stq        r3,0(r1)        : MemWrite :  D=0x0000000000000001 A=0x1200c19a8
24129000: system.cpu T0 : 0x12001e360    : lda        r2,-24248(r2)   : IntAlu :  D=0x00000001200c2970
24575000: system.cpu T0 : 0x12001e364    : ldq        r1,-31440(r29)  : MemRead :  D=0x00000001200c19b0 A=0x1200c0d58
24576000: system.cpu T0 : 0x12001e368    : stq        r2,0(r1)        : MemWrite :  D=0x00000001200c2970 A=0x1200c19b0
24576000: system.cpu T0 : 0x12001e36c    : stq        r10,40(r2)      : MemWrite :  D=0x00000001200c2d80 A=0x1200c2998
24576000: system.cpu T0 : 0x12001e370    : bne        r12,0x12001e37c : IntAlu : 
24576000: system.cpu T0 : 0x12001e37c    : addq       r15,r12,r24     : IntAlu :  D=0x000000000000005c
24577000: system.cpu T0 : 0x12001e380    : lda        r24,-1(r24)     : IntAlu :  D=0x000000000000005b
24577000: system.cpu T0 : 0x12001e384    : bis        r31,r12,r25     : IntAlu :  D=0x0000000000000008
24577000: system.cpu T0 : 0x12001e388    : nop        (ldq_u      r31,0(r30)) : No_OpClass : 
24577000: system.cpu T0 : 0x12001e38c    : bsr        r23,__divqu     : IntAlu :  D=0x000000012001e390
24578000: system.cpu T0 : 0x1200318b0    : lda        r30,-64(r30)    : IntAlu :  D=0x000000011ff91c80
24578000: system.cpu T0 : 0x1200318b4    : stt        f0,0(r30)       : MemWrite :  D=0x0000000000000000 A=0x11ff91c80
24581000: system.cpu T0 : 0x1200318b8    : excb                       : No_OpClass : 
24581000: system.cpu T0 : 0x1200318bc    : beq        r25,0x120031a40 : IntAlu : 
24581000: system.cpu T0 : 0x1200318c0    : stt        f1,8(r30)       : MemWrite :  D=0x0000000000000000 A=0x11ff91c88
24581000: system.cpu T0 : 0x1200318c4    : stt        f3,48(r30)      : MemWrite :  D=0x0000000000000000 A=0x11ff91cb0
24584000: system.cpu T0 : 0x1200318c8    : mf_fpcr    f106,f3         : FloatAdd :  D=0x0000000000000000
24584000: system.cpu T0 : 0x1200318cc    : itoft      r24,f0          : FloatCvt :  D=0x000000000000005b
24584000: system.cpu T0 : 0x1200318d0    : itoft      r25,f1          : FloatCvt :  D=0x0000000000000008
24585000: system.cpu T0 : 0x1200318d4    : cvtqt      f0,f0           : FloatAdd :  D=0x4056c00000000000
24585000: system.cpu T0 : 0x1200318d8    : cvtqt      f1,f1           : FloatAdd :  D=0x4020000000000000
24585000: system.cpu T0 : 0x1200318dc    : blt        r24,0x120031920 : IntAlu : 
24586000: system.cpu T0 : 0x1200318e0    : divt/c     f0,f1,f0        : FloatDiv :  D=0x4026c00000000000
25021000: system.cpu T0 : 0x1200318e4    : ldt        f1,8(r30)       : MemRead :  D=0x0000000000000000 A=0x11ff91c88
25021000: system.cpu T0 : 0x1200318e8    : blt        r25,0x120031a20 : IntAlu : 
25021000: system.cpu T0 : 0x1200318ec    : srl        r24,53,r28      : IntAlu :  D=0x0000000000000000
25021000: system.cpu T0 : 0x1200318f0    : bne        r28,0x120031950 : IntAlu : 
25022000: system.cpu T0 : 0x1200318f4    : cvttq/c    f0,f0           : FloatAdd :  D=0x000000000000000b
25025000: system.cpu T0 : 0x1200318f8    : excb                       : No_OpClass : 
25028000: system.cpu T0 : 0x1200318fc    : mt_fpcr    f3,f106         : FloatAdd :  D=0x0000000000000000
25028000: system.cpu T0 : 0x120031900    : ftoit      f0,r27          : FloatCvt :  D=0x000000000000000b
25029000: system.cpu T0 : 0x120031904    : ldt        f0,0(r30)       : MemRead :  D=0x0000000000000000 A=0x11ff91c80
25030000: system.cpu T0 : 0x120031908    : ldt        f3,48(r30)      : MemRead :  D=0x0000000000000000 A=0x11ff91cb0
25030000: system.cpu T0 : 0x12003190c    : lda        r30,64(r30)     : IntAlu :  D=0x000000011ff91cc0
25030000: system.cpu T0 : 0x120031910    : ret        (r23)           : IntAlu : 
25031000: system.cpu T0 : 0x12001e390    : bis        r31,r27,r15     : IntAlu :  D=0x000000000000000b
25032000: system.cpu T0 : 0x12001e394    : mulq       r15,r12,r2      : IntMult :  D=0x0000000000000058
25034000: system.cpu T0 : 0x12001e398    : addq       r2,r13,r2       : IntAlu :  D=0x0000000000000068
25034000: system.cpu T0 : 0x12001e39c    : ldah       r3,0(r29)       : IntAlu :  D=0x00000001200c8828
25465000: system.cpu T0 : 0x12001e3a0    : ldq        r1,-30120(r3)   : MemRead :  D=0x0000000000000800 A=0x1200c1280
25467000: system.cpu T0 : 0x12001e3a4    : lda        r1,15(r1)       : IntAlu :  D=0x000000000000080f
25468000: system.cpu T0 : 0x12001e3a8    : addq       r1,r2,r1        : IntAlu :  D=0x0000000000000877
25469000: system.cpu T0 : 0x12001e3ac    : bic        r1,15,r1        : IntAlu :  D=0x0000000000000870
25470000: system.cpu T0 : 0x12001e3b0    : stq        r1,-30120(r3)   : MemWrite :  D=0x0000000000000870 A=0x1200c1280
25894000: system.cpu T0 : 0x12001e3b4    : ldq        r1,-32280(r29)  : MemRead :  D=0x00000001200c1998 A=0x1200c0a10
25895000: system.cpu T0 : 0x12001e3b8    : stq        r2,0(r1)        : MemWrite :  D=0x0000000000000068 A=0x1200c1998
25895000: system.cpu T0 : 0x12001e3bc    : cmpule     r14,16,r1       : IntAlu :  D=0x0000000000000001
25895000: system.cpu T0 : 0x12001e3c0    : lda        r2,16(r31)      : IntAlu :  D=0x0000000000000010
25895000: system.cpu T0 : 0x12001e3c4    : cmoveq     r1,r14,r2       : IntAlu :  D=0x0000000000000010
26319000: system.cpu T0 : 0x12001e3c8    : ldq        r1,-31888(r29)  : MemRead :  D=0x00000001200c19a0 A=0x1200c0b98
26320000: system.cpu T0 : 0x12001e3cc    : stq        r2,0(r1)        : MemWrite :  D=0x0000000000000010 A=0x1200c19a0
26324000: system.cpu T0 : 0x12001e3d0    : ldq        r1,-31864(r29)  : MemRead :  D=0x00000001200c19a8 A=0x1200c0bb0
26327000: system.cpu T0 : 0x12001e3d4    : ldq        r2,0(r1)        : MemRead :  D=0x0000000000000001 A=0x1200c19a8
26749000: system.cpu T0 : 0x12001e3d8    : ldq        r1,-30744(r29)  : MemRead :  D=0x00000001200c19c8 A=0x1200c1010
26750000: system.cpu T0 : 0x12001e3dc    : stq        r2,0(r1)        : MemWrite :  D=0x0000000000000001 A=0x1200c19c8
27187000: system.cpu T0 : 0x12001e3e0    : ldq        r26,0(r30)      : MemRead :  D=0x000000012001e444 A=0x11ff91cc0
27194000: system.cpu T0 : 0x12001e3e4    : ldq        r9,8(r30)       : MemRead :  D=0x0000000000000000 A=0x11ff91cc8
27195000: system.cpu T0 : 0x12001e3e8    : ldq        r10,16(r30)     : MemRead :  D=0x0000000000000000 A=0x11ff91cd0
27195000: system.cpu T0 : 0x12001e3ec    : ldq        r11,24(r30)     : MemRead :  D=0x0000000000000000 A=0x11ff91cd8
27195000: system.cpu T0 : 0x12001e3f0    : ldq        r12,32(r30)     : MemRead :  D=0x000000012001e450 A=0x11ff91ce0
27195000: system.cpu T0 : 0x12001e3f4    : ldq        r13,40(r30)     : MemRead :  D=0x000000012001e4c0 A=0x11ff91ce8
27196000: system.cpu T0 : 0x12001e3f8    : ldq        r14,48(r30)     : MemRead :  D=0x0000000000000000 A=0x11ff91cf0
27197000: system.cpu T0 : 0x12001e3fc    : ldq        r15,56(r30)     : MemRead :  D=0x0000000000000000 A=0x11ff91cf8
27197000: system.cpu T0 : 0x12001e400    : lda        r30,80(r30)     : IntAlu :  D=0x000000011ff91d10
27197000: system.cpu T0 : 0x12001e404    : ret        (r26)           : IntAlu : 
27212000: system.cpu T0 : 0x12001e444    : ldq        r26,0(r30)      : MemRead :  D=0x000000012001de64 A=0x11ff91d10
27212000: system.cpu T0 : 0x12001e448    : lda        r30,16(r30)     : IntAlu :  D=0x000000011ff91d20
27214000: system.cpu T0 : 0x12001e44c    : ret        (r26)           : IntAlu : 
27624000: system.cpu T0 : 0x12001de64    : nop        (ldq_u      r31,0(r30)) : No_OpClass : 
27624000: system.cpu T0 : 0x12001de68    : nop        (ldq_u      r31,0(r30)) : No_OpClass : 
27624000: system.cpu T0 : 0x12001de6c    : stq        r31,224(r30)    : MemWrite :  D=0x0000000000000000 A=0x11ff91e00
27624000: system.cpu T0 : 0x12001de70    : lda        r2,224(r30)     : IntAlu :  D=0x000000011ff91e00
27625000: system.cpu T0 : 0x12001de74    : lda        r1,-1(r31)      : IntAlu :  D=0xffffffffffffffff
27626000: system.cpu T0 : 0x12001de78    : stb        r1,7(r2)        : MemWrite :  D=0x00000000000000ff A=0x11ff91e07
27626000: system.cpu T0 : 0x12001de7c    : lda        r1,10(r31)      : IntAlu :  D=0x000000000000000a
28048000: system.cpu T0 : 0x12001de80    : stb        r1,6(r2)        : MemWrite :  D=0x000000000000000a A=0x11ff91e06
28055000: system.cpu T0 : 0x12001de84    : ldq        r2,224(r30)     : MemRead :  D=0xff0a000000000000 A=0x11ff91e00
28055000: system.cpu T0 : 0x12001de88    : ldah       r1,-1(r29)      : IntAlu :  D=0x00000001200b8828
28057000: system.cpu T0 : 0x12001de8c    : stq        r2,22624(r1)    : MemWrite :  D=0xff0a000000000000 A=0x1200be088
28057000: system.cpu T0 : 0x12001de90    : beq        r11,0x12001deb0 : IntAlu : 
28498000: system.cpu T0 : 0x12001deb0    : ldq        r16,696(r30)    : MemRead :  D=0x0000000000000002 A=0x11ff91fd8
28505000: system.cpu T0 : 0x12001deb4    : ldq        r17,704(r30)    : MemRead :  D=0x000000011ff92008 A=0x11ff91fe0
28505000: system.cpu T0 : 0x12001deb8    : lda        r1,-29608(r29)  : IntAlu :  D=0x00000001200c1480
28507000: system.cpu T0 : 0x12001debc    : ldq        r18,0(r1)       : MemRead :  D=0x000000011ff92020 A=0x1200c1480
28507000: system.cpu T0 : 0x12001dec0    : nop        (ldq_u      r31,0(r30)) : No_OpClass : 
28507000: system.cpu T0 : 0x12001dec4    : bsr        r26,0x120034188 : IntAlu :  D=0x000000012001dec8
28939000: system.cpu T0 : 0x120034188    : lda        r30,-32(r30)    : IntAlu :  D=0x000000011ff91d00
28939000: system.cpu T0 : 0x12003418c    : stq        r26,0(r30)      : MemWrite :  D=0x000000012001dec8 A=0x11ff91d00
28939000: system.cpu T0 : 0x120034190    : stq        r9,8(r30)       : MemWrite :  D=0x0000000000000000 A=0x11ff91d08
28939000: system.cpu T0 : 0x120034194    : stq        r10,16(r30)     : MemWrite :  D=0x0000000000000000 A=0x11ff91d10
28940000: system.cpu T0 : 0x120034198    : stq        r11,24(r30)     : MemWrite :  D=0x0000000000000000 A=0x11ff91d18
28940000: system.cpu T0 : 0x12003419c    : bis        r31,r16,r9      : IntAlu :  D=0x0000000000000002
28940000: system.cpu T0 : 0x1200341a0    : bis        r31,r17,r10     : IntAlu :  D=0x000000011ff92008
28940000: system.cpu T0 : 0x1200341a4    : bis        r31,r18,r11     : IntAlu :  D=0x000000011ff92020
28941000: system.cpu T0 : 0x1200341a8    : lda        r1,0(r31)       : IntAlu :  D=0x0000000000000000
28942000: system.cpu T0 : 0x1200341ac    : beq        r1,0x120034230  : IntAlu : 
29374000: system.cpu T0 : 0x120034230    : ldah       r1,0(r29)       : IntAlu :  D=0x00000001200c8828
29374000: system.cpu T0 : 0x120034234    : stl        r31,-29944(r1)  : MemWrite :  D=0x0000000000000000 A=0x1200c1330
29374000: system.cpu T0 : 0x120034238    : lda        r1,-29888(r29)  : IntAlu :  D=0x00000001200c1368
29806000: system.cpu T0 : 0x12003423c    : ldl        r16,0(r1)       : MemRead :  D=0x000000000000137f A=0x1200c1368
29806000: system.cpu T0 : 0x120034240    : nop        (ldq_u      r31,0(r30)) : No_OpClass : 
29806000: system.cpu T0 : 0x120034244    : bsr        r26,0x1200450b0 : IntAlu :  D=0x0000000120034248
30238000: system.cpu T0 : 0x1200450b0    : lda        r30,-16(r30)    : IntAlu :  D=0x000000011ff91cf0
30238000: system.cpu T0 : 0x1200450b4    : stq        r26,0(r30)      : MemWrite :  D=0x0000000120034248 A=0x11ff91cf0
30238000: system.cpu T0 : 0x1200450b8    : stq        r9,8(r30)       : MemWrite :  D=0x0000000000000002 A=0x11ff91cf8
30238000: system.cpu T0 : 0x1200450bc    : bis        r31,r16,r9      : IntAlu :  D=0x000000000000137f
30247000: system.cpu T0 : 0x1200450c0    : beq        r16,0x1200451b8 : IntAlu : 
30250000: system.cpu T0 : 0x1200450c4    : excb                       : No_OpClass : 
30253000: system.cpu T0 : 0x1200450c8    : mf_fpcr    f106,f10        : FloatAdd :  D=0x0000000000000000
30254000: system.cpu T0 : 0x1200450cc    : ftoit      f10,r2          : FloatCvt :  D=0x0000000000000000
30254000: system.cpu T0 : 0x1200450d0    : lda        r1,-3(r31)      : IntAlu :  D=0xfffffffffffffffd
30255000: system.cpu T0 : 0x1200450d4    : sll        r1,58,r1        : IntAlu :  D=0xf400000000000000
30256000: system.cpu T0 : 0x1200450d8    : lda        r1,-1(r1)       : IntAlu :  D=0xf3ffffffffffffff
30257000: system.cpu T0 : 0x1200450dc    : and        r2,r1,r2        : IntAlu :  D=0x0000000000000000
30257000: system.cpu T0 : 0x1200450e0    : lda        r1,3072(r31)    : IntAlu :  D=0x0000000000000c00
30258000: system.cpu T0 : 0x1200450e4    : and        r16,r1,r3       : IntAlu :  D=0x0000000000000000
30259000: system.cpu T0 : 0x1200450e8    : lda        r1,-1024(r3)    : IntAlu :  D=0xfffffffffffffc00
30260000: system.cpu T0 : 0x1200450ec    : beq        r1,0x12004510c  : IntAlu : 
30260000: system.cpu T0 : 0x1200450f0    : lda        r1,-2048(r3)    : IntAlu :  D=0xfffffffffffff800
30261000: system.cpu T0 : 0x1200450f4    : beq        r1,0x12004511c  : IntAlu : 
30262000: system.cpu T0 : 0x1200450f8    : bne        r3,0x120045128  : IntAlu : 
30262000: system.cpu T0 : 0x1200450fc    : lda        r1,1(r31)       : IntAlu :  D=0x0000000000000001
30682000: system.cpu T0 : 0x120045100    : sll        r1,59,r1        : IntAlu :  D=0x0800000000000000
30683000: system.cpu T0 : 0x120045104    : bis        r2,r1,r2        : IntAlu :  D=0x0800000000000000
30683000: system.cpu T0 : 0x120045108    : br         0x120045128     : IntAlu : 
30686000: system.cpu T0 : 0x120045128    : itoft      r2,f10          : FloatCvt :  D=0x0800000000000000
30689000: system.cpu T0 : 0x12004512c    : mt_fpcr    f10,f106        : FloatAdd :  D=0x0800000000000000
30692000: system.cpu T0 : 0x120045130    : excb                       : No_OpClass : 
30692000: system.cpu T0 : 0x120045134    : nop        (ldq_u      r31,0(r30)) : No_OpClass : 
30692000: system.cpu T0 : 0x120045138    : bsr        r26,0x120062bf8 : IntAlu :  D=0x000000012004513c
31120000: system.cpu T0 : 0x120062bf8    : lda        r30,-16(r30)    : IntAlu :  D=0x000000011ff91ce0
31121000: system.cpu T0 : 0x120062bfc    : bis        r31,r30,r17     : IntAlu :  D=0x000000011ff91ce0
31129000: system.cpu T0 : 0x120062c00    : lda        r16,45(r31)     : IntAlu :  D=0x000000000000002d
31129000: system.cpu T0 : 0x120062c04    : lda        r0,256(r31)     : IntAlu :  D=0x0000000000000100
31130000: system.cpu T0 : 0x120062c08    : call_pal   callsys         : IntAlu : 
31136000: system.cpu T0 : 0x120062c0c    : bne        r19,0x120062c1c : IntAlu : 
31137000: system.cpu T0 : 0x120062c10    : ldq        r0,0(r30)       : MemRead :  D=0x0000000000000000 A=0x11ff91ce0
31137000: system.cpu T0 : 0x120062c14    : lda        r30,16(r30)     : IntAlu :  D=0x000000011ff91cf0
31137000: system.cpu T0 : 0x120062c18    : ret        (r26)           : IntAlu : 
31139000: system.cpu T0 : 0x12004513c    : nop        (ldq_u      r31,0(r30)) : No_OpClass : 
31140000: system.cpu T0 : 0x120045140    : nop        (ldq_u      r31,0(r30)) : No_OpClass : 
31140000: system.cpu T0 : 0x120045144    : bic        r0,126,r0       : IntAlu :  D=0x0000000000000000
31141000: system.cpu T0 : 0x120045148    : bis        r0,2,r1         : IntAlu :  D=0x0000000000000002
31142000: system.cpu T0 : 0x12004514c    : cmovlbc    r9,r1,r0        : IntAlu :  D=0x0000000000000000
31142000: system.cpu T0 : 0x120045150    : and        r9,2,r1         : IntAlu :  D=0x0000000000000002
31143000: system.cpu T0 : 0x120045154    : zapnot     r1,15,r1        : IntAlu :  D=0x0000000000000002
31143000: system.cpu T0 : 0x120045158    : bis        r0,16,r2        : IntAlu :  D=0x0000000000000010
31144000: system.cpu T0 : 0x12004515c    : cmoveq     r1,r2,r0        : IntAlu :  D=0x0000000000000000
31144000: system.cpu T0 : 0x120045160    : and        r9,4,r1         : IntAlu :  D=0x0000000000000004
31145000: system.cpu T0 : 0x120045164    : zapnot     r1,15,r1        : IntAlu :  D=0x0000000000000004
31145000: system.cpu T0 : 0x120045168    : bis        r0,4,r2         : IntAlu :  D=0x0000000000000004
31146000: system.cpu T0 : 0x12004516c    : cmoveq     r1,r2,r0        : IntAlu :  D=0x0000000000000000
31146000: system.cpu T0 : 0x120045170    : and        r9,8,r1         : IntAlu :  D=0x0000000000000008
31147000: system.cpu T0 : 0x120045174    : zapnot     r1,15,r1        : IntAlu :  D=0x0000000000000008
31147000: system.cpu T0 : 0x120045178    : bis        r0,8,r2         : IntAlu :  D=0x0000000000000008
31148000: system.cpu T0 : 0x12004517c    : cmoveq     r1,r2,r0        : IntAlu :  D=0x0000000000000000
31569000: system.cpu T0 : 0x120045180    : and        r9,32,r2        : IntAlu :  D=0x0000000000000020
31570000: system.cpu T0 : 0x120045184    : zapnot     r2,15,r2        : IntAlu :  D=0x0000000000000020
31570000: system.cpu T0 : 0x120045188    : bis        r0,32,r16       : IntAlu :  D=0x0000000000000020
31570000: system.cpu T0 : 0x12004518c    : lda        r1,-29888(r29)  : IntAlu :  D=0x00000001200c1368
31570000: system.cpu T0 : 0x120045190    : stl        r9,0(r1)        : MemWrite :  D=0x000000000000137f A=0x1200c1368
31571000: system.cpu T0 : 0x120045194    : cmovne     r2,r0,r16       : IntAlu :  D=0x0000000000000000
31571000: system.cpu T0 : 0x120045198    : nop        (ldq_u      r31,0(r30)) : No_OpClass : 
31571000: system.cpu T0 : 0x12004519c    : bsr        r26,0x120062c38 : IntAlu :  D=0x00000001200451a0
31573000: system.cpu T0 : 0x120062c38    : lda        r30,-16(r30)    : IntAlu :  D=0x000000011ff91ce0
31573000: system.cpu T0 : 0x120062c3c    : stq        r16,0(r30)      : MemWrite :  D=0x0000000000000000 A=0x11ff91ce0
31996000: system.cpu T0 : 0x120062c40    : bis        r31,r30,r17     : IntAlu :  D=0x000000011ff91ce0
31996000: system.cpu T0 : 0x120062c44    : lda        r16,14(r31)     : IntAlu :  D=0x000000000000000e
31996000: system.cpu T0 : 0x120062c48    : lda        r0,257(r31)     : IntAlu :  D=0x0000000000000101
31997000: system.cpu T0 : 0x120062c4c    : call_pal   callsys         : IntAlu : 
32003000: system.cpu T0 : 0x120062c50    : bne        r19,0x120062c5c : IntAlu : 
32003000: system.cpu T0 : 0x120062c54    : lda        r30,16(r30)     : IntAlu :  D=0x000000011ff91cf0
32004000: system.cpu T0 : 0x120062c58    : ret        (r26)           : IntAlu : 
32006000: system.cpu T0 : 0x1200451a0    : nop        (ldq_u      r31,0(r30)) : No_OpClass : 
32006000: system.cpu T0 : 0x1200451a4    : nop        (ldq_u      r31,0(r30)) : No_OpClass : 
32007000: system.cpu T0 : 0x1200451a8    : ldq        r26,0(r30)      : MemRead :  D=0x0000000120034248 A=0x11ff91cf0
32008000: system.cpu T0 : 0x1200451ac    : ldq        r9,8(r30)       : MemRead :  D=0x0000000000000002 A=0x11ff91cf8
32008000: system.cpu T0 : 0x1200451b0    : lda        r30,16(r30)     : IntAlu :  D=0x000000011ff91d00
32009000: system.cpu T0 : 0x1200451b4    : ret        (r26)           : IntAlu : 
32439000: system.cpu T0 : 0x120034248    : nop        (ldq_u      r31,0(r30)) : No_OpClass : 
32439000: system.cpu T0 : 0x12003424c    : nop        (ldq_u      r31,0(r30)) : No_OpClass : 
32439000: system.cpu T0 : 0x120034250    : br         0x1200341c4     : IntAlu : 
32887000: system.cpu T0 : 0x1200341c4    : ldq        r1,-32752(r29)  : MemRead :  D=0x00000001200c1aa0 A=0x1200c0838
32888000: system.cpu T0 : 0x1200341c8    : stl        r9,0(r1)        : MemWrite :  D=0x0000000000000002 A=0x1200c1aa0
33325000: system.cpu T0 : 0x1200341cc    : ldq        r1,-30360(r29)  : MemRead :  D=0x00000001200c1aa8 A=0x1200c1190
33326000: system.cpu T0 : 0x1200341d0    : stq        r10,0(r1)       : MemWrite :  D=0x000000011ff92008 A=0x1200c1aa8
33326000: system.cpu T0 : 0x1200341d4    : lda        r1,-29608(r29)  : IntAlu :  D=0x00000001200c1480
33326000: system.cpu T0 : 0x1200341d8    : stq        r11,0(r1)       : MemWrite :  D=0x000000011ff92020 A=0x1200c1480
33326000: system.cpu T0 : 0x1200341dc    : nop        (ldq_u      r31,0(r30)) : No_OpClass : 
33327000: system.cpu T0 : 0x1200341e0    : bsr        r26,0x1200340c4 : IntAlu :  D=0x00000001200341e4
33327000: system.cpu T0 : 0x1200340c4    : lda        r30,-16(r30)    : IntAlu :  D=0x000000011ff91cf0
33327000: system.cpu T0 : 0x1200340c8    : stq        r26,0(r30)      : MemWrite :  D=0x00000001200341e4 A=0x11ff91cf0
33327000: system.cpu T0 : 0x1200340cc    : stq        r9,8(r30)       : MemWrite :  D=0x0000000000000002 A=0x11ff91cf8
33767000: system.cpu T0 : 0x1200340d0    : ldq        r1,-31680(r29)  : MemRead :  D=0x00000001200c1a98 A=0x1200c0c68
33770000: system.cpu T0 : 0x1200340d4    : ldl        r1,0(r1)        : MemRead :  D=0x0000000000000001 A=0x1200c1a98
33772000: system.cpu T0 : 0x1200340d8    : bne        r1,0x120034154  : IntAlu : 
34199000: system.cpu T0 : 0x120034154    : ldq        r26,0(r30)      : MemRead :  D=0x00000001200341e4 A=0x11ff91cf0
34200000: system.cpu T0 : 0x120034158    : ldq        r9,8(r30)       : MemRead :  D=0x0000000000000002 A=0x11ff91cf8
34200000: system.cpu T0 : 0x12003415c    : lda        r30,16(r30)     : IntAlu :  D=0x000000011ff91d00
34201000: system.cpu T0 : 0x120034160    : ret        (r26)           : IntAlu : 
34201000: system.cpu T0 : 0x1200341e4    : nop        (ldq_u      r31,0(r30)) : No_OpClass : 
34201000: system.cpu T0 : 0x1200341e8    : nop        (ldq_u      r31,0(r30)) : No_OpClass : 
34201000: system.cpu T0 : 0x1200341ec    : nop        (ldq_u      r31,0(r30)) : No_OpClass : 
34202000: system.cpu T0 : 0x1200341f0    : bsr        r26,0x120033950 : IntAlu :  D=0x00000001200341f4
34625000: system.cpu T0 : 0x120033950    : lda        r30,-64(r30)    : IntAlu :  D=0x000000011ff91cc0
34625000: system.cpu T0 : 0x120033954    : stq        r26,0(r30)      : MemWrite :  D=0x00000001200341f4 A=0x11ff91cc0
34625000: system.cpu T0 : 0x120033958    : stq        r9,8(r30)       : MemWrite :  D=0x0000000000000002 A=0x11ff91cc8
34625000: system.cpu T0 : 0x12003395c    : stq        r10,16(r30)     : MemWrite :  D=0x000000011ff92008 A=0x11ff91cd0
34626000: system.cpu T0 : 0x120033960    : stq        r11,24(r30)     : MemWrite :  D=0x000000011ff92020 A=0x11ff91cd8
34626000: system.cpu T0 : 0x120033964    : stq        r12,32(r30)     : MemWrite :  D=0x000000012001e450 A=0x11ff91ce0
34626000: system.cpu T0 : 0x120033968    : rpcc       r31,r1          : IntAlu :  D=0x0000000002105200
34627000: system.cpu T0 : 0x12003396c    : srl        r1,32,r2        : IntAlu :  D=0x0000000000000000
34628000: system.cpu T0 : 0x120033970    : subq       r1,r2,r1        : IntAlu :  D=0x0000000002105200
35056000: system.cpu T0 : 0x120033974    : ldq        r2,-31976(r29)  : MemRead :  D=0x00000001200c1a10 A=0x1200c0b40
35057000: system.cpu T0 : 0x120033978    : stl        r1,0(r2)        : MemWrite :  D=0x0000000002105200 A=0x1200c1a10
35499000: system.cpu T0 : 0x12003397c    : ldq        r1,-30216(r29)  : MemRead :  D=0x00000001200c1a90 A=0x1200c1220
35502000: system.cpu T0 : 0x120033980    : ldq        r1,0(r1)        : MemRead :  D=0x0000000000002000 A=0x1200c1a90
35504000: system.cpu T0 : 0x120033984    : bne        r1,0x1200339a0  : IntAlu : 
35507000: system.cpu T0 : 0x1200339a0    : ldah       r16,-3(r29)     : IntAlu :  D=0x0000000120098828
35508000: system.cpu T0 : 0x1200339a4    : lda        r16,-25540(r16) : IntAlu :  D=0x0000000120092464
35508000: system.cpu T0 : 0x1200339a8    : nop        (ldq_u      r31,0(r30)) : No_OpClass : 
[...]
182940000: system.cpu T0 : 0x120002a3c    : addq       r23,r5,r5       : IntAlu :  D=0x0000000000000ede
182941000: system.cpu T0 : 0x120002a40    : cmovge     r1,r1,r3        : IntAlu :  D=0x0000000000000000
182941000: system.cpu T0 : 0x120002a44    : cmovge     r4,r4,r2        : IntAlu :  D=0x0000000000000003
182941000: system.cpu T0 : 0x120002a48    : s4addq     r5,0,r5         : IntAlu :  D=0x0000000000003b78
182942000: system.cpu T0 : 0x120002a4c    : addq       r28,r5,r6       : IntAlu :  D=0x00000001200e1f08
182942000: system.cpu T0 : 0x120002a50    : addq       r0,r5,r5        : IntAlu :  D=0x00000001200f6308
182942000: system.cpu T0 : 0x120002a54    : addl       r31,r3,r3       : IntAlu :  D=0x0000000000000000
182942000: system.cpu T0 : 0x120002a58    : addl       r31,r2,r2       : IntAlu :  D=0x0000000000000003
182943000: system.cpu T0 : 0x120002a5c    : cmple      r2,r3,r1        : IntAlu :  D=0x0000000000000000
182943000: system.cpu T0 : 0x120002a60    : addq       r2,r3,r4        : IntAlu :  D=0x0000000000000003
182944000: system.cpu T0 : 0x120002a64    : cmoveq     r1,r2,r3        : IntAlu :  D=0x0000000000000003
182944000: system.cpu T0 : 0x120002a68    : stl        r4,0(r5)        : MemWrite :  D=0x0000000000000003 A=0x1200f6308
182945000: system.cpu T0 : 0x120002a6c    : stl        r3,0(r6)        : MemWrite :  D=0x0000000000000003 A=0x1200e1f08
182945000: system.cpu T0 : 0x120002a70    : beq        r7,0x120002a10  : IntAlu : 
182948000: system.cpu T0 : 0x120002a10    : addl       r31,r8,r1       : IntAlu :  D=0x0000000000000019
182949000: system.cpu T0 : 0x120002a14    : ldl        r5,0(r22)       : MemRead :  D=0x000000000000003f A=0x12008e418
182949000: system.cpu T0 : 0x120002a18    : lda        r8,1(r8)        : IntAlu :  D=0x000000000000001a
182949000: system.cpu T0 : 0x120002a1c    : lda        r22,4(r22)      : IntAlu :  D=0x000000012008e41c
182949000: system.cpu T0 : 0x120002a20    : sra        r1,3,r4         : IntAlu :  D=0x0000000000000003
182950000: system.cpu T0 : 0x120002a24    : and        r1,7,r1         : IntAlu :  D=0x0000000000000001
182950000: system.cpu T0 : 0x120002a28    : cmpeq      r8,64,r7        : IntAlu :  D=0x0000000000000000
182950000: system.cpu T0 : 0x120002a2c    : subq       r24,r1,r1       : IntAlu :  D=0xffffffffffffffff
182950000: system.cpu T0 : 0x120002a30    : subl       r25,r4,r4       : IntAlu :  D=0x00000000fffffffd
182951000: system.cpu T0 : 0x120002a34    : subq       r31,r1,r3       : IntAlu :  D=0x0000000000000001
182951000: system.cpu T0 : 0x120002a38    : subq       r31,r4,r2       : IntAlu :  D=0x0000000000000003
182951000: system.cpu T0 : 0x120002a3c    : addq       r23,r5,r5       : IntAlu :  D=0x0000000000000edf
182952000: system.cpu T0 : 0x120002a40    : cmovge     r1,r1,r3        : IntAlu :  D=0x0000000000000001
182952000: system.cpu T0 : 0x120002a44    : cmovge     r4,r4,r2        : IntAlu :  D=0x0000000000000003
182952000: system.cpu T0 : 0x120002a48    : s4addq     r5,0,r5         : IntAlu :  D=0x0000000000003b7c
182953000: system.cpu T0 : 0x120002a4c    : addq       r28,r5,r6       : IntAlu :  D=0x00000001200e1f0c
182953000: system.cpu T0 : 0x120002a50    : addq       r0,r5,r5        : IntAlu :  D=0x00000001200f630c
182953000: system.cpu T0 : 0x120002a54    : addl       r31,r3,r3       : IntAlu :  D=0x0000000000000001
182953000: system.cpu T0 : 0x120002a58    : addl       r31,r2,r2       : IntAlu :  D=0x0000000000000003
182954000: system.cpu T0 : 0x120002a5c    : cmple      r2,r3,r1        : IntAlu :  D=0x0000000000000000
182954000: system.cpu T0 : 0x120002a60    : addq       r2,r3,r4        : IntAlu :  D=0x0000000000000004
182955000: system.cpu T0 : 0x120002a64    : cmoveq     r1,r2,r3        : IntAlu :  D=0x0000000000000003
182955000: system.cpu T0 : 0x120002a68    : stl        r4,0(r5)        : MemWrite :  D=0x0000000000000004 A=0x1200f630c
182956000: system.cpu T0 : 0x120002a6c    : stl        r3,0(r6)        : MemWrite :  D=0x0000000000000003 A=0x1200e1f0c
182956000: system.cpu T0 : 0x120002a70    : beq        r7,0x120002a10  : IntAlu : 
182959000: system.cpu T0 : 0x120002a10    : addl       r31,r8,r1       : IntAlu :  D=0x000000000000001a
182960000: system.cpu T0 : 0x120002a14    : ldl        r5,0(r22)       : MemRead :  D=0x0000000000000040 A=0x12008e41c
182960000: system.cpu T0 : 0x120002a18    : lda        r8,1(r8)        : IntAlu :  D=0x000000000000001b
182960000: system.cpu T0 : 0x120002a1c    : lda        r22,4(r22)      : IntAlu :  D=0x000000012008e420
182960000: system.cpu T0 : 0x120002a20    : sra        r1,3,r4         : IntAlu :  D=0x0000000000000003
182961000: system.cpu T0 : 0x120002a24    : and        r1,7,r1         : IntAlu :  D=0x0000000000000002
182961000: system.cpu T0 : 0x120002a28    : cmpeq      r8,64,r7        : IntAlu :  D=0x0000000000000000
182961000: system.cpu T0 : 0x120002a2c    : subq       r24,r1,r1       : IntAlu :  D=0xfffffffffffffffe
182961000: system.cpu T0 : 0x120002a30    : subl       r25,r4,r4       : IntAlu :  D=0x00000000fffffffd
182962000: system.cpu T0 : 0x120002a34    : subq       r31,r1,r3       : IntAlu :  D=0x0000000000000002
182962000: system.cpu T0 : 0x120002a38    : subq       r31,r4,r2       : IntAlu :  D=0x0000000000000003
182962000: system.cpu T0 : 0x120002a3c    : addq       r23,r5,r5       : IntAlu :  D=0x0000000000000ee0
182963000: system.cpu T0 : 0x120002a40    : cmovge     r1,r1,r3        : IntAlu :  D=0x0000000000000002
182963000: system.cpu T0 : 0x120002a44    : cmovge     r4,r4,r2        : IntAlu :  D=0x0000000000000003
182963000: system.cpu T0 : 0x120002a48    : s4addq     r5,0,r5         : IntAlu :  D=0x0000000000003b80
182964000: system.cpu T0 : 0x120002a4c    : addq       r28,r5,r6       : IntAlu :  D=0x00000001200e1f10
182964000: system.cpu T0 : 0x120002a50    : addq       r0,r5,r5        : IntAlu :  D=0x00000001200f6310
182964000: system.cpu T0 : 0x120002a54    : addl       r31,r3,r3       : IntAlu :  D=0x0000000000000002
182964000: system.cpu T0 : 0x120002a58    : addl       r31,r2,r2       : IntAlu :  D=0x0000000000000003
182965000: system.cpu T0 : 0x120002a5c    : cmple      r2,r3,r1        : IntAlu :  D=0x0000000000000000
182965000: system.cpu T0 : 0x120002a60    : addq       r2,r3,r4        : IntAlu :  D=0x0000000000000005
182966000: system.cpu T0 : 0x120002a64    : cmoveq     r1,r2,r3        : IntAlu :  D=0x0000000000000003
182966000: system.cpu T0 : 0x120002a68    : stl        r4,0(r5)        : MemWrite :  D=0x0000000000000005 A=0x1200f6310
182967000: system.cpu T0 : 0x120002a6c    : stl        r3,0(r6)        : MemWrite :  D=0x0000000000000003 A=0x1200e1f10
182967000: system.cpu T0 : 0x120002a70    : beq        r7,0x120002a10  : IntAlu : 
182970000: system.cpu T0 : 0x120002a10    : addl       r31,r8,r1       : IntAlu :  D=0x000000000000001b
182971000: system.cpu T0 : 0x120002a14    : ldl        r5,0(r22)       : MemRead :  D=0x0000000000000041 A=0x12008e420
182971000: system.cpu T0 : 0x120002a18    : lda        r8,1(r8)        : IntAlu :  D=0x000000000000001c
182971000: system.cpu T0 : 0x120002a1c    : lda        r22,4(r22)      : IntAlu :  D=0x000000012008e424
182971000: system.cpu T0 : 0x120002a20    : sra        r1,3,r4         : IntAlu :  D=0x0000000000000003
182972000: system.cpu T0 : 0x120002a24    : and        r1,7,r1         : IntAlu :  D=0x0000000000000003
182972000: system.cpu T0 : 0x120002a28    : cmpeq      r8,64,r7        : IntAlu :  D=0x0000000000000000
182972000: system.cpu T0 : 0x120002a2c    : subq       r24,r1,r1       : IntAlu :  D=0xfffffffffffffffd
182972000: system.cpu T0 : 0x120002a30    : subl       r25,r4,r4       : IntAlu :  D=0x00000000fffffffd
182973000: system.cpu T0 : 0x120002a34    : subq       r31,r1,r3       : IntAlu :  D=0x0000000000000003
182973000: system.cpu T0 : 0x120002a38    : subq       r31,r4,r2       : IntAlu :  D=0x0000000000000003
182973000: system.cpu T0 : 0x120002a3c    : addq       r23,r5,r5       : IntAlu :  D=0x0000000000000ee1
182974000: system.cpu T0 : 0x120002a40    : cmovge     r1,r1,r3        : IntAlu :  D=0x0000000000000003
182974000: system.cpu T0 : 0x120002a44    : cmovge     r4,r4,r2        : IntAlu :  D=0x0000000000000003
182974000: system.cpu T0 : 0x120002a48    : s4addq     r5,0,r5         : IntAlu :  D=0x0000000000003b84
182975000: system.cpu T0 : 0x120002a4c    : addq       r28,r5,r6       : IntAlu :  D=0x00000001200e1f14
182975000: system.cpu T0 : 0x120002a50    : addq       r0,r5,r5        : IntAlu :  D=0x00000001200f6314
182975000: system.cpu T0 : 0x120002a54    : addl       r31,r3,r3       : IntAlu :  D=0x0000000000000003
182975000: system.cpu T0 : 0x120002a58    : addl       r31,r2,r2       : IntAlu :  D=0x0000000000000003
182976000: system.cpu T0 : 0x120002a5c    : cmple      r2,r3,r1        : IntAlu :  D=0x0000000000000001
182976000: system.cpu T0 : 0x120002a60    : addq       r2,r3,r4        : IntAlu :  D=0x0000000000000006
182977000: system.cpu T0 : 0x120002a64    : cmoveq     r1,r2,r3        : IntAlu :  D=0x0000000000000003
182977000: system.cpu T0 : 0x120002a68    : stl        r4,0(r5)        : MemWrite :  D=0x0000000000000006 A=0x1200f6314
182978000: system.cpu T0 : 0x120002a6c    : stl        r3,0(r6)        : MemWrite :  D=0x0000000000000003 A=0x1200e1f14
182978000: system.cpu T0 : 0x120002a70    : beq        r7,0x120002a10  : IntAlu : 
182981000: system.cpu T0 : 0x120002a10    : addl       r31,r8,r1       : IntAlu :  D=0x000000000000001c
182982000: system.cpu T0 : 0x120002a14    : ldl        r5,0(r22)       : MemRead :  D=0x0000000000000042 A=0x12008e424
182982000: system.cpu T0 : 0x120002a18    : lda        r8,1(r8)        : IntAlu :  D=0x000000000000001d
182982000: system.cpu T0 : 0x120002a1c    : lda        r22,4(r22)      : IntAlu :  D=0x000000012008e428
182982000: system.cpu T0 : 0x120002a20    : sra        r1,3,r4         : IntAlu :  D=0x0000000000000003
182983000: system.cpu T0 : 0x120002a24    : and        r1,7,r1         : IntAlu :  D=0x0000000000000004
182983000: system.cpu T0 : 0x120002a28    : cmpeq      r8,64,r7        : IntAlu :  D=0x0000000000000000
182983000: system.cpu T0 : 0x120002a2c    : subq       r24,r1,r1       : IntAlu :  D=0xfffffffffffffffc
182983000: system.cpu T0 : 0x120002a30    : subl       r25,r4,r4       : IntAlu :  D=0x00000000fffffffd
182984000: system.cpu T0 : 0x120002a34    : subq       r31,r1,r3       : IntAlu :  D=0x0000000000000004
182984000: system.cpu T0 : 0x120002a38    : subq       r31,r4,r2       : IntAlu :  D=0x0000000000000003
182984000: system.cpu T0 : 0x120002a3c    : addq       r23,r5,r5       : IntAlu :  D=0x0000000000000ee2
182985000: system.cpu T0 : 0x120002a40    : cmovge     r1,r1,r3        : IntAlu :  D=0x0000000000000004
182985000: system.cpu T0 : 0x120002a44    : cmovge     r4,r4,r2        : IntAlu :  D=0x0000000000000003
182985000: system.cpu T0 : 0x120002a48    : s4addq     r5,0,r5         : IntAlu :  D=0x0000000000003b88
182986000: system.cpu T0 : 0x120002a4c    : addq       r28,r5,r6       : IntAlu :  D=0x00000001200e1f18
182986000: system.cpu T0 : 0x120002a50    : addq       r0,r5,r5        : IntAlu :  D=0x00000001200f6318
182986000: system.cpu T0 : 0x120002a54    : addl       r31,r3,r3       : IntAlu :  D=0x0000000000000004
182986000: system.cpu T0 : 0x120002a58    : addl       r31,r2,r2       : IntAlu :  D=0x0000000000000003
182987000: system.cpu T0 : 0x120002a5c    : cmple      r2,r3,r1        : IntAlu :  D=0x0000000000000001
182987000: system.cpu T0 : 0x120002a60    : addq       r2,r3,r4        : IntAlu :  D=0x0000000000000007
182988000: system.cpu T0 : 0x120002a64    : cmoveq     r1,r2,r3        : IntAlu :  D=0x0000000000000004
182988000: system.cpu T0 : 0x120002a68    : stl        r4,0(r5)        : MemWrite :  D=0x0000000000000007 A=0x1200f6318
182989000: system.cpu T0 : 0x120002a6c    : stl        r3,0(r6)        : MemWrite :  D=0x0000000000000004 A=0x1200e1f18
182989000: system.cpu T0 : 0x120002a70    : beq        r7,0x120002a10  : IntAlu : 
182992000: system.cpu T0 : 0x120002a10    : addl       r31,r8,r1       : IntAlu :  D=0x000000000000001d
182993000: system.cpu T0 : 0x120002a14    : ldl        r5,0(r22)       : MemRead :  D=0x0000000000000043 A=0x12008e428
182993000: system.cpu T0 : 0x120002a18    : lda        r8,1(r8)        : IntAlu :  D=0x000000000000001e
182993000: system.cpu T0 : 0x120002a1c    : lda        r22,4(r22)      : IntAlu :  D=0x000000012008e42c
182993000: system.cpu T0 : 0x120002a20    : sra        r1,3,r4         : IntAlu :  D=0x0000000000000003
182994000: system.cpu T0 : 0x120002a24    : and        r1,7,r1         : IntAlu :  D=0x0000000000000005
182994000: system.cpu T0 : 0x120002a28    : cmpeq      r8,64,r7        : IntAlu :  D=0x0000000000000000
182994000: system.cpu T0 : 0x120002a2c    : subq       r24,r1,r1       : IntAlu :  D=0xfffffffffffffffb
182994000: system.cpu T0 : 0x120002a30    : subl       r25,r4,r4       : IntAlu :  D=0x00000000fffffffd
182995000: system.cpu T0 : 0x120002a34    : subq       r31,r1,r3       : IntAlu :  D=0x0000000000000005
182995000: system.cpu T0 : 0x120002a38    : subq       r31,r4,r2       : IntAlu :  D=0x0000000000000003
182995000: system.cpu T0 : 0x120002a3c    : addq       r23,r5,r5       : IntAlu :  D=0x0000000000000ee3
182996000: system.cpu T0 : 0x120002a40    : cmovge     r1,r1,r3        : IntAlu :  D=0x0000000000000005
182996000: system.cpu T0 : 0x120002a44    : cmovge     r4,r4,r2        : IntAlu :  D=0x0000000000000003
182996000: system.cpu T0 : 0x120002a48    : s4addq     r5,0,r5         : IntAlu :  D=0x0000000000003b8c
182997000: system.cpu T0 : 0x120002a4c    : addq       r28,r5,r6       : IntAlu :  D=0x00000001200e1f1c
182997000: system.cpu T0 : 0x120002a50    : addq       r0,r5,r5        : IntAlu :  D=0x00000001200f631c
182997000: system.cpu T0 : 0x120002a54    : addl       r31,r3,r3       : IntAlu :  D=0x0000000000000005
182997000: system.cpu T0 : 0x120002a58    : addl       r31,r2,r2       : IntAlu :  D=0x0000000000000003
182998000: system.cpu T0 : 0x120002a5c    : cmple      r2,r3,r1        : IntAlu :  D=0x0000000000000001
182998000: system.cpu T0 : 0x120002a60    : addq       r2,r3,r4        : IntAlu :  D=0x0000000000000008
182999000: system.cpu T0 : 0x120002a64    : cmoveq     r1,r2,r3        : IntAlu :  D=0x0000000000000005
182999000: system.cpu T0 : 0x120002a68    : stl        r4,0(r5)        : MemWrite :  D=0x0000000000000008 A=0x1200f631c
183000000: system.cpu T0 : 0x120002a6c    : stl        r3,0(r6)        : MemWrite :  D=0x0000000000000005 A=0x1200e1f1c
183000000: system.cpu T0 : 0x120002a70    : beq        r7,0x120002a10  : IntAlu : 
183003000: system.cpu T0 : 0x120002a10    : addl       r31,r8,r1       : IntAlu :  D=0x000000000000001e
183004000: system.cpu T0 : 0x120002a14    : ldl        r5,0(r22)       : MemRead :  D=0x0000000000000044 A=0x12008e42c
183004000: system.cpu T0 : 0x120002a18    : lda        r8,1(r8)        : IntAlu :  D=0x000000000000001f
183004000: system.cpu T0 : 0x120002a1c    : lda        r22,4(r22)      : IntAlu :  D=0x000000012008e430
183004000: system.cpu T0 : 0x120002a20    : sra        r1,3,r4         : IntAlu :  D=0x0000000000000003
183005000: system.cpu T0 : 0x120002a24    : and        r1,7,r1         : IntAlu :  D=0x0000000000000006
183005000: system.cpu T0 : 0x120002a28    : cmpeq      r8,64,r7        : IntAlu :  D=0x0000000000000000
183005000: system.cpu T0 : 0x120002a2c    : subq       r24,r1,r1       : IntAlu :  D=0xfffffffffffffffa
183005000: system.cpu T0 : 0x120002a30    : subl       r25,r4,r4       : IntAlu :  D=0x00000000fffffffd
183006000: system.cpu T0 : 0x120002a34    : subq       r31,r1,r3       : IntAlu :  D=0x0000000000000006
183006000: system.cpu T0 : 0x120002a38    : subq       r31,r4,r2       : IntAlu :  D=0x0000000000000003
183006000: system.cpu T0 : 0x120002a3c    : addq       r23,r5,r5       : IntAlu :  D=0x0000000000000ee4
183007000: system.cpu T0 : 0x120002a40    : cmovge     r1,r1,r3        : IntAlu :  D=0x0000000000000006
183007000: system.cpu T0 : 0x120002a44    : cmovge     r4,r4,r2        : IntAlu :  D=0x0000000000000003
183007000: system.cpu T0 : 0x120002a48    : s4addq     r5,0,r5         : IntAlu :  D=0x0000000000003b90
183008000: system.cpu T0 : 0x120002a4c    : addq       r28,r5,r6       : IntAlu :  D=0x00000001200e1f20
183008000: system.cpu T0 : 0x120002a50    : addq       r0,r5,r5        : IntAlu :  D=0x00000001200f6320
183008000: system.cpu T0 : 0x120002a54    : addl       r31,r3,r3       : IntAlu :  D=0x0000000000000006
183008000: system.cpu T0 : 0x120002a58    : addl       r31,r2,r2       : IntAlu :  D=0x0000000000000003
183009000: system.cpu T0 : 0x120002a5c    : cmple      r2,r3,r1        : IntAlu :  D=0x0000000000000001
183009000: system.cpu T0 : 0x120002a60    : addq       r2,r3,r4        : IntAlu :  D=0x0000000000000009
183010000: system.cpu T0 : 0x120002a64    : cmoveq     r1,r2,r3        : IntAlu :  D=0x0000000000000006
183010000: system.cpu T0 : 0x120002a68    : stl        r4,0(r5)        : MemWrite :  D=0x0000000000000009 A=0x1200f6320
183011000: system.cpu T0 : 0x120002a6c    : stl        r3,0(r6)        : MemWrite :  D=0x0000000000000006 A=0x1200e1f20
183011000: system.cpu T0 : 0x120002a70    : beq        r7,0x120002a10  : IntAlu : 
183014000: system.cpu T0 : 0x120002a10    : addl       r31,r8,r1       : IntAlu :  D=0x000000000000001f
183015000: system.cpu T0 : 0x120002a14    : ldl        r5,0(r22)       : MemRead :  D=0x0000000000000045 A=0x12008e430
183015000: system.cpu T0 : 0x120002a18    : lda        r8,1(r8)        : IntAlu :  D=0x0000000000000020
183015000: system.cpu T0 : 0x120002a1c    : lda        r22,4(r22)      : IntAlu :  D=0x000000012008e434
183015000: system.cpu T0 : 0x120002a20    : sra        r1,3,r4         : IntAlu :  D=0x0000000000000003
183016000: system.cpu T0 : 0x120002a24    : and        r1,7,r1         : IntAlu :  D=0x0000000000000007
183016000: system.cpu T0 : 0x120002a28    : cmpeq      r8,64,r7        : IntAlu :  D=0x0000000000000000
183016000: system.cpu T0 : 0x120002a2c    : subq       r24,r1,r1       : IntAlu :  D=0xfffffffffffffff9
183016000: system.cpu T0 : 0x120002a30    : subl       r25,r4,r4       : IntAlu :  D=0x00000000fffffffd
183017000: system.cpu T0 : 0x120002a34    : subq       r31,r1,r3       : IntAlu :  D=0x0000000000000007
183017000: system.cpu T0 : 0x120002a38    : subq       r31,r4,r2       : IntAlu :  D=0x0000000000000003
183017000: system.cpu T0 : 0x120002a3c    : addq       r23,r5,r5       : IntAlu :  D=0x0000000000000ee5
hi - end of Simulation.run
Exiting @ tick 183017000 because a thread reached the max instruction count
MZ: sets[0] blks[0] (V:1 | T: 35fa | D:1)
MZ: sets[0] blks[1] (V:1 | T:  8e4 | D:35)
MZ: sets[0] blks[2] (V:1 | T:   2a | D:8)
MZ: sets[0] blks[3] (V:1 | T: 35f9 | D:c4)
MZ: sets[1] blks[0] (V:1 | T: 35fb | D:34)
MZ: sets[1] blks[1] (V:1 | T: 35f2 | D:48)
MZ: sets[1] blks[2] (V:1 | T:   2a | D:c3)
MZ: sets[1] blks[3] (V:1 | T: 35f9 | D:0)
MZ: sets[2] blks[0] (V:1 | T:   2a | D:dc)
MZ: sets[2] blks[1] (V:1 | T:  8e3 | D:0)
MZ: sets[2] blks[2] (V:1 | T:  b0d | D:c)
MZ: sets[2] blks[3] (V:0 | T:  d1e | D:0)
MZ: sets[3] blks[0] (V:1 | T:  8e3 | D:1d)
MZ: sets[3] blks[1] (V:1 | T: 115b | D:0)
MZ: sets[3] blks[2] (V:1 | T:  b0b | D:e0)
MZ: sets[3] blks[3] (V:0 | T:  d1e | D:0)
MZ: sets[0] blks[0] (V:1 | T:   2a | D:8)
MZ: sets[0] blks[1] (V:1 | T:  110 | D:0)
MZ: sets[1] blks[0] (V:1 | T:   2a | D:c3)
MZ: sets[1] blks[1] (V:1 | T:  209 | D:1)
MZ: sets[2] blks[0] (V:1 | T:   2a | D:dc)
MZ: sets[2] blks[1] (V:1 | T:   29 | D:8)
MZ: sets[3] blks[0] (V:1 | T:   29 | D:15)
MZ: sets[3] blks[1] (V:1 | T:  1f7 | D:60)
MZ: sets[0] blks[0] (V:1 | T:  8e4 | D:35)
MZ: sets[0] blks[1] (V:1 | T: 35fb | D:24)
MZ: sets[1] blks[0] (V:1 | T:  d1e | D:0)
MZ: sets[1] blks[1] (V:1 | T:  e62 | D:0)
MZ: sets[2] blks[0] (V:1 | T:  d1e | D:2)
MZ: sets[2] blks[1] (V:1 | T:  e62 | D:2)
MZ: sets[3] blks[0] (V:1 | T:  d1e | D:6)
MZ: sets[3] blks[1] (V:1 | T:  e62 | D:7)
