gem5 Simulator System.  http://gem5.org
gem5 is copyrighted software; use the --copyright option for details.

gem5 compiled Dec  9 2015 17:23:43
gem5 started Dec  9 2015 17:28:31
gem5 executing on qstruct09.ecn.purdue.edu
command line: ./build/ALPHA_MESI_CMP_directory/gem5.opt -d m5out --debug-flag=Exec configs/spec2k6/run.py -b sjeng --cpu-type=inorder --caches --maxinsts=5000 --l1i_size=512B --l1d_size=512B --l1d_assoc=2 --l2cache --l2_size=1kB --l2_assoc=4 --l2_sc_assoc=2 --opt_l2
/home/min/a/mzaim/ECE565Project/OptimalReplacementPolicyCache/gem5/configs/spec2k6
/home/min/a/mzaim/ECE565Project/OptimalReplacementPolicyCache/gem5/configs
/home/min/a/mzaim/ECE565Project/OptimalReplacementPolicyCache/gem5
Global frequency set at 1000000000000 ticks per second
**** REAL SIMULATION ****
info: Entering event queue @ 0.  Starting simulation...
 432000: system.cpu T0 : 0x1200001e0    : br         r29,0x1200001e4 : IntAlu :  D=0x00000001200001e4
 433000: system.cpu T0 : 0x1200001e4    : ldah       r29,13(r29)     : IntAlu :  D=0x00000001200d01e4
 434000: system.cpu T0 : 0x1200001e8    : lda        r29,-31164(r29) : IntAlu :  D=0x00000001200c8828
 434000: system.cpu T0 : 0x1200001ec    : subq       r30,16,r30      : IntAlu :  D=0x000000011ff91ff0
 434000: system.cpu T0 : 0x1200001f0    : bis        r31,0,r15       : IntAlu :  D=0x0000000000000000
 435000: system.cpu T0 : 0x1200001f4    : ldq        r16,-31136(r29) : MemRead :  A=0x1200c0e88
 864000: system.cpu T0 : 0x1200001f4    : ldq        r16,-31136(r29) : MemRead :  D=0x0000000120017680 A=0x1200c0e88
 864000: system.cpu T0 : 0x1200001f8    : ldl        r17,16(r30)     : MemRead :  A=0x11ff92000
1293000: system.cpu T0 : 0x1200001f8    : ldl        r17,16(r30)     : MemRead :  D=0x0000000000000002 A=0x11ff92000
1293000: system.cpu T0 : 0x1200001fc    : lda        r18,24(r30)     : IntAlu :  D=0x000000011ff92008
1302000: system.cpu T0 : 0x120000200    : ldq        r19,-31168(r29) : MemRead :  D=0x000000012001e4c0 A=0x1200c0e68
1311000: system.cpu T0 : 0x120000204    : ldq        r20,-32032(r29) : MemRead :  D=0x000000012001e450 A=0x1200c0b08
1311000: system.cpu T0 : 0x120000208    : bis        r31,r0,r21      : IntAlu :  D=0x0000000000000000
1311000: system.cpu T0 : 0x12000020c    : stq        r30,0(r30)      : MemWrite :  D=0x000000011ff91ff0 A=0x11ff91ff0
info: Increasing stack size by one page.
1317000: system.cpu T0 : 0x12000020c    : stq        r30,0(r30)      : MemWrite :  D=0x000000011ff91ff0 A=0x11ff91ff0
1317000: system.cpu T0 : 0x120000210    : nop        (ldq_u      r31,0(r30)) : No_OpClass : 
1317000: system.cpu T0 : 0x120000214    : bsr        r26,0x12001dc28 : IntAlu :  D=0x0000000120000218
1752000: system.cpu T0 : 0x12001dc28    : lda        r30,-720(r30)   : IntAlu :  D=0x000000011ff91d20
1752000: system.cpu T0 : 0x12001dc2c    : stq        r26,0(r30)      : MemWrite :  D=0x0000000120000218 A=0x11ff91d20
1752000: system.cpu T0 : 0x12001dc30    : stq        r9,8(r30)       : MemWrite :  D=0x0000000000000000 A=0x11ff91d28
1752000: system.cpu T0 : 0x12001dc34    : stq        r10,16(r30)     : MemWrite :  D=0x0000000000000000 A=0x11ff91d30
1753000: system.cpu T0 : 0x12001dc38    : stq        r11,24(r30)     : MemWrite :  D=0x0000000000000000 A=0x11ff91d38
1753000: system.cpu T0 : 0x12001dc3c    : stq        r12,32(r30)     : MemWrite :  D=0x0000000000000000 A=0x11ff91d40
2176000: system.cpu T0 : 0x12001dc40    : stq        r13,40(r30)     : MemWrite :  D=0x0000000000000000 A=0x11ff91d48
2176000: system.cpu T0 : 0x12001dc44    : stq        r16,688(r30)    : MemWrite :  D=0x0000000120017680 A=0x11ff91fd0
2176000: system.cpu T0 : 0x12001dc48    : stq        r17,696(r30)    : MemWrite :  D=0x0000000000000002 A=0x11ff91fd8
2176000: system.cpu T0 : 0x12001dc4c    : stq        r18,704(r30)    : MemWrite :  D=0x000000011ff92008 A=0x11ff91fe0
2177000: system.cpu T0 : 0x12001dc50    : bis        r31,r19,r13     : IntAlu :  D=0x000000012001e4c0
2177000: system.cpu T0 : 0x12001dc54    : bis        r31,r20,r12     : IntAlu :  D=0x000000012001e450
2177000: system.cpu T0 : 0x12001dc58    : bis        r31,r21,r11     : IntAlu :  D=0x0000000000000000
2177000: system.cpu T0 : 0x12001dc5c    : bis        r31,r31,r2      : IntAlu :  D=0x0000000000000000
2178000: system.cpu T0 : 0x12001dc60    : lda        r1,0(r31)       : IntAlu :  D=0x0000000000000000
2179000: system.cpu T0 : 0x12001dc64    : beq        r1,0x12001dc74  : IntAlu : 
2182000: system.cpu T0 : 0x12001dc74    : lda        r1,-29944(r29)  : IntAlu :  D=0x00000001200c1330
2182000: system.cpu T0 : 0x12001dc78    : stl        r2,0(r1)        : MemWrite :  D=0x0000000000000000 A=0x1200c1330
2183000: system.cpu T0 : 0x12001dc7c    : ldq        r1,696(r30)     : MemRead :  D=0x0000000000000002 A=0x11ff91fd8
2603000: system.cpu T0 : 0x12001dc80    : s8addq     r1,8,r2         : IntAlu :  D=0x0000000000000018
2604000: system.cpu T0 : 0x12001dc84    : ldq        r4,704(r30)     : MemRead :  D=0x000000011ff92008 A=0x11ff91fe0
2606000: system.cpu T0 : 0x12001dc88    : addq       r4,r2,r2        : IntAlu :  D=0x000000011ff92020
2606000: system.cpu T0 : 0x12001dc8c    : lda        r1,-29608(r29)  : IntAlu :  D=0x00000001200c1480
2607000: system.cpu T0 : 0x12001dc90    : stq        r2,0(r1)        : MemWrite :  D=0x000000011ff92020 A=0x1200c1480
3039000: system.cpu T0 : 0x12001dc94    : ldq        r3,-32592(r29)  : MemRead :  D=0x00000001200be5f8 A=0x1200c08d8
3039000: system.cpu T0 : 0x12001dc98    : ldq        r1,720(r30)     : MemRead :  D=0x000000011ff91ff0 A=0x11ff91ff0
3040000: system.cpu T0 : 0x12001dc9c    : stq        r1,0(r3)        : MemWrite :  D=0x000000011ff91ff0 A=0x1200be5f8
3046000: system.cpu T0 : 0x12001dc9c    : stq        r1,0(r3)        : MemWrite :  D=0x000000011ff91ff0 A=0x1200be5f8
3060000: system.cpu T0 : 0x12001dca0    : ldq        r1,0(r2)        : MemRead :  D=0x0000000000000000 A=0x11ff92020
3060000: system.cpu T0 : 0x12001dca4    : lda        r2,8(r2)        : IntAlu :  D=0x000000011ff92028
3062000: system.cpu T0 : 0x12001dca8    : bne        r1,0x12001dca0  : IntAlu : 
3062000: system.cpu T0 : 0x12001dcac    : bis        r31,r2,r16      : IntAlu :  D=0x000000011ff92028
3062000: system.cpu T0 : 0x12001dcb0    : nop        (ldq_u      r31,0(r30)) : No_OpClass : 
3063000: system.cpu T0 : 0x12001dcb4    : bsr        r26,0x1200337ac : IntAlu :  D=0x000000012001dcb8
3493000: system.cpu T0 : 0x1200337ac    : ldq        r2,0(r16)       : MemRead :  D=0x0000000000000006 A=0x11ff92028
3495000: system.cpu T0 : 0x1200337b0    : beq        r2,0x120033918  : IntAlu : 
3495000: system.cpu T0 : 0x1200337b4    : bis        r31,r31,r3      : IntAlu :  D=0x0000000000000000
3495000: system.cpu T0 : 0x1200337b8    : bis        r31,r31,r4      : IntAlu :  D=0x0000000000000000
3495000: system.cpu T0 : 0x1200337bc    : bis        r31,r31,r5      : IntAlu :  D=0x0000000000000000
3916000: system.cpu T0 : 0x1200337c0    : ldah       r1,-3(r29)      : IntAlu :  D=0x0000000120098828
3917000: system.cpu T0 : 0x1200337c4    : lda        r6,-25964(r1)   : IntAlu :  D=0x00000001200922bc
3917000: system.cpu T0 : 0x1200337c8    : ldah       r8,-1(r29)      : IntAlu :  D=0x00000001200b8828
3918000: system.cpu T0 : 0x1200337cc    : lda        r7,31640(r8)    : IntAlu :  D=0x00000001200c03c0
4350000: system.cpu T0 : 0x1200337d0    : ldq        r19,-31792(r29) : MemRead :  D=0x00000001200be600 A=0x1200c0bf8
4359000: system.cpu T0 : 0x1200337d4    : ldq        r18,-31680(r29) : MemRead :  D=0x00000001200c1a98 A=0x1200c0c68
4359000: system.cpu T0 : 0x1200337d8    : lda        r24,1(r31)      : IntAlu :  D=0x0000000000000001
4359000: system.cpu T0 : 0x1200337dc    : lda        r25,-1(r31)     : IntAlu :  D=0xffffffffffffffff
4368000: system.cpu T0 : 0x1200337e0    : ldq        r28,-30936(r29) : MemRead :  D=0x00000001200c1a48 A=0x1200c0f50
4368000: system.cpu T0 : 0x1200337e4    : ldah       r0,0(r29)       : IntAlu :  D=0x00000001200c8828
4783000: system.cpu T0 : 0x1200337e8    : ldq        r21,-30552(r29) : MemRead :  D=0x00000001200c1a60 A=0x1200c10d0
4792000: system.cpu T0 : 0x1200337ec    : ldq        r20,-31240(r29) : MemRead :  D=0x00000001200c1a28 A=0x1200c0e20
4801000: system.cpu T0 : 0x1200337f0    : ldq        r22,-31064(r29) : MemRead :  D=0x00000001200c1a40 A=0x1200c0ed0
4810000: system.cpu T0 : 0x1200337f4    : ldq        r23,-30216(r29) : MemRead :  D=0x00000001200c1a90 A=0x1200c1220
4810000: system.cpu T0 : 0x1200337f8    : lda        r2,-3(r2)       : IntAlu :  D=0x0000000000000003
4810000: system.cpu T0 : 0x1200337fc    : cmpule     r2,34,r1        : IntAlu :  D=0x0000000000000001
4810000: system.cpu T0 : 0x120033800    : beq        r1,0x1200338dc  : IntAlu : 
4811000: system.cpu T0 : 0x120033804    : s4addq     r2,r6,r1        : IntAlu :  D=0x00000001200922c8
4811000: system.cpu T0 : 0x120033808    : ldl        r1,0(r1)        : MemRead :  A=0x1200922c8
5240000: system.cpu T0 : 0x120033808    : ldl        r1,0(r1)        : MemRead :  D=0x00000000fff6afec A=0x1200922c8
5242000: system.cpu T0 : 0x12003380c    : addq       r29,r1,r1       : IntAlu :  D=0x0000000120033814
5243000: system.cpu T0 : 0x120033810    : jmp        (r1)            : IntAlu : 
5256000: system.cpu T0 : 0x120033814    : ldq        r1,8(r16)       : MemRead :  D=0x0000000000002000 A=0x11ff92030
5258000: system.cpu T0 : 0x120033818    : stq        r1,0(r23)       : MemWrite :  D=0x0000000000002000 A=0x1200c1a90
5258000: system.cpu T0 : 0x12003381c    : br         0x1200338dc     : IntAlu : 
5684000: system.cpu T0 : 0x1200338dc    : lda        r16,16(r16)     : IntAlu :  D=0x000000011ff92038
5686000: system.cpu T0 : 0x1200338e0    : ldq        r2,0(r16)       : MemRead :  D=0x0000000000000011 A=0x11ff92038
5688000: system.cpu T0 : 0x1200338e4    : bne        r2,0x1200337f8  : IntAlu : 
5692000: system.cpu T0 : 0x1200337f8    : lda        r2,-3(r2)       : IntAlu :  D=0x000000000000000e
5693000: system.cpu T0 : 0x1200337fc    : cmpule     r2,34,r1        : IntAlu :  D=0x0000000000000001
5694000: system.cpu T0 : 0x120033800    : beq        r1,0x1200338dc  : IntAlu : 
5694000: system.cpu T0 : 0x120033804    : s4addq     r2,r6,r1        : IntAlu :  D=0x00000001200922f4
5696000: system.cpu T0 : 0x120033808    : ldl        r1,0(r1)        : MemRead :  D=0x00000000fff6aff8 A=0x1200922f4
5698000: system.cpu T0 : 0x12003380c    : addq       r29,r1,r1       : IntAlu :  D=0x0000000120033820
5699000: system.cpu T0 : 0x120033810    : jmp        (r1)            : IntAlu : 
6133000: system.cpu T0 : 0x120033820    : ldq        r1,8(r16)       : MemRead :  D=0x0000000000000064 A=0x11ff92040
6135000: system.cpu T0 : 0x120033824    : stl        r1,0(r22)       : MemWrite :  D=0x0000000000000064 A=0x1200c1a40
6135000: system.cpu T0 : 0x120033828    : br         0x1200338dc     : IntAlu : 
6138000: system.cpu T0 : 0x1200338dc    : lda        r16,16(r16)     : IntAlu :  D=0x000000011ff92048
6140000: system.cpu T0 : 0x1200338e0    : ldq        r2,0(r16)       : MemRead :  D=0x0000000000000003 A=0x11ff92048
6142000: system.cpu T0 : 0x1200338e4    : bne        r2,0x1200337f8  : IntAlu : 
6145000: system.cpu T0 : 0x1200337f8    : lda        r2,-3(r2)       : IntAlu :  D=0x0000000000000000
6146000: system.cpu T0 : 0x1200337fc    : cmpule     r2,34,r1        : IntAlu :  D=0x0000000000000001
6147000: system.cpu T0 : 0x120033800    : beq        r1,0x1200338dc  : IntAlu : 
6147000: system.cpu T0 : 0x120033804    : s4addq     r2,r6,r1        : IntAlu :  D=0x00000001200922bc
6571000: system.cpu T0 : 0x120033808    : ldl        r1,0(r1)        : MemRead :  D=0x00000000fff6b004 A=0x1200922bc
6573000: system.cpu T0 : 0x12003380c    : addq       r29,r1,r1       : IntAlu :  D=0x000000012003382c
6574000: system.cpu T0 : 0x120033810    : jmp        (r1)            : IntAlu : 
6578000: system.cpu T0 : 0x12003382c    : ldq        r1,8(r16)       : MemRead :  D=0x0000000120000040 A=0x11ff92050
6580000: system.cpu T0 : 0x120033830    : stq        r1,0(r20)       : MemWrite :  D=0x0000000120000040 A=0x1200c1a28
6580000: system.cpu T0 : 0x120033834    : br         0x1200338dc     : IntAlu : 
6583000: system.cpu T0 : 0x1200338dc    : lda        r16,16(r16)     : IntAlu :  D=0x000000011ff92058
6585000: system.cpu T0 : 0x1200338e0    : ldq        r2,0(r16)       : MemRead :  D=0x0000000000000005 A=0x11ff92058
6587000: system.cpu T0 : 0x1200338e4    : bne        r2,0x1200337f8  : IntAlu : 
6590000: system.cpu T0 : 0x1200337f8    : lda        r2,-3(r2)       : IntAlu :  D=0x0000000000000002
6591000: system.cpu T0 : 0x1200337fc    : cmpule     r2,34,r1        : IntAlu :  D=0x0000000000000001
6592000: system.cpu T0 : 0x120033800    : beq        r1,0x1200338dc  : IntAlu : 
6592000: system.cpu T0 : 0x120033804    : s4addq     r2,r6,r1        : IntAlu :  D=0x00000001200922c4
6594000: system.cpu T0 : 0x120033808    : ldl        r1,0(r1)        : MemRead :  D=0x00000000fff6b010 A=0x1200922c4
6596000: system.cpu T0 : 0x12003380c    : addq       r29,r1,r1       : IntAlu :  D=0x0000000120033838
6597000: system.cpu T0 : 0x120033810    : jmp        (r1)            : IntAlu : 
6601000: system.cpu T0 : 0x120033838    : ldq        r1,8(r16)       : MemRead :  D=0x0000000000000005 A=0x11ff92060
6603000: system.cpu T0 : 0x12003383c    : stq        r1,0(r21)       : MemWrite :  D=0x0000000000000005 A=0x1200c1a60
6603000: system.cpu T0 : 0x120033840    : br         0x1200338dc     : IntAlu : 
6606000: system.cpu T0 : 0x1200338dc    : lda        r16,16(r16)     : IntAlu :  D=0x000000011ff92068
6608000: system.cpu T0 : 0x1200338e0    : ldq        r2,0(r16)       : MemRead :  D=0x0000000000000009 A=0x11ff92068
6610000: system.cpu T0 : 0x1200338e4    : bne        r2,0x1200337f8  : IntAlu : 
6613000: system.cpu T0 : 0x1200337f8    : lda        r2,-3(r2)       : IntAlu :  D=0x0000000000000006
6614000: system.cpu T0 : 0x1200337fc    : cmpule     r2,34,r1        : IntAlu :  D=0x0000000000000001
6615000: system.cpu T0 : 0x120033800    : beq        r1,0x1200338dc  : IntAlu : 
6615000: system.cpu T0 : 0x120033804    : s4addq     r2,r6,r1        : IntAlu :  D=0x00000001200922d4
6617000: system.cpu T0 : 0x120033808    : ldl        r1,0(r1)        : MemRead :  D=0x00000000fff6b0b4 A=0x1200922d4
6619000: system.cpu T0 : 0x12003380c    : addq       r29,r1,r1       : IntAlu :  D=0x00000001200338dc
6620000: system.cpu T0 : 0x120033810    : jmp        (r1)            : IntAlu : 
6623000: system.cpu T0 : 0x1200338dc    : lda        r16,16(r16)     : IntAlu :  D=0x000000011ff92078
6625000: system.cpu T0 : 0x1200338e0    : ldq        r2,0(r16)       : MemRead :  D=0x000000000000000b A=0x11ff92078
6627000: system.cpu T0 : 0x1200338e4    : bne        r2,0x1200337f8  : IntAlu : 
6630000: system.cpu T0 : 0x1200337f8    : lda        r2,-3(r2)       : IntAlu :  D=0x0000000000000008
6631000: system.cpu T0 : 0x1200337fc    : cmpule     r2,34,r1        : IntAlu :  D=0x0000000000000001
6632000: system.cpu T0 : 0x120033800    : beq        r1,0x1200338dc  : IntAlu : 
6632000: system.cpu T0 : 0x120033804    : s4addq     r2,r6,r1        : IntAlu :  D=0x00000001200922dc
6634000: system.cpu T0 : 0x120033808    : ldl        r1,0(r1)        : MemRead :  D=0x00000000fff6b034 A=0x1200922dc
6636000: system.cpu T0 : 0x12003380c    : addq       r29,r1,r1       : IntAlu :  D=0x000000012003385c
6637000: system.cpu T0 : 0x120033810    : jmp        (r1)            : IntAlu : 
7071000: system.cpu T0 : 0x12003385c    : ldl        r1,8(r16)       : MemRead :  D=0x0000000000000064 A=0x11ff92080
7073000: system.cpu T0 : 0x120033860    : xor        r4,r1,r4        : IntAlu :  D=0x0000000000000064
7073000: system.cpu T0 : 0x120033864    : bis        r3,1,r3         : IntAlu :  D=0x0000000000000001
7073000: system.cpu T0 : 0x120033868    : br         0x1200338dc     : IntAlu : 
7076000: system.cpu T0 : 0x1200338dc    : lda        r16,16(r16)     : IntAlu :  D=0x000000011ff92088
7078000: system.cpu T0 : 0x1200338e0    : ldq        r2,0(r16)       : MemRead :  D=0x000000000000000c A=0x11ff92088
7080000: system.cpu T0 : 0x1200338e4    : bne        r2,0x1200337f8  : IntAlu : 
7083000: system.cpu T0 : 0x1200337f8    : lda        r2,-3(r2)       : IntAlu :  D=0x0000000000000009
7084000: system.cpu T0 : 0x1200337fc    : cmpule     r2,34,r1        : IntAlu :  D=0x0000000000000001
7085000: system.cpu T0 : 0x120033800    : beq        r1,0x1200338dc  : IntAlu : 
7085000: system.cpu T0 : 0x120033804    : s4addq     r2,r6,r1        : IntAlu :  D=0x00000001200922e0
7087000: system.cpu T0 : 0x120033808    : ldl        r1,0(r1)        : MemRead :  D=0x00000000fff6b044 A=0x1200922e0
7089000: system.cpu T0 : 0x12003380c    : addq       r29,r1,r1       : IntAlu :  D=0x000000012003386c
7090000: system.cpu T0 : 0x120033810    : jmp        (r1)            : IntAlu : 
7094000: system.cpu T0 : 0x12003386c    : ldl        r1,8(r16)       : MemRead :  D=0x0000000000000064 A=0x11ff92090
7096000: system.cpu T0 : 0x120033870    : xor        r4,r1,r4        : IntAlu :  D=0x0000000000000000
7096000: system.cpu T0 : 0x120033874    : bis        r3,2,r3         : IntAlu :  D=0x0000000000000003
7096000: system.cpu T0 : 0x120033878    : br         0x1200338dc     : IntAlu : 
7100000: system.cpu T0 : 0x1200338dc    : lda        r16,16(r16)     : IntAlu :  D=0x000000011ff92098
7102000: system.cpu T0 : 0x1200338e0    : ldq        r2,0(r16)       : MemRead :  D=0x000000000000000d A=0x11ff92098
7104000: system.cpu T0 : 0x1200338e4    : bne        r2,0x1200337f8  : IntAlu : 
7108000: system.cpu T0 : 0x1200337f8    : lda        r2,-3(r2)       : IntAlu :  D=0x000000000000000a
7109000: system.cpu T0 : 0x1200337fc    : cmpule     r2,34,r1        : IntAlu :  D=0x0000000000000001
7110000: system.cpu T0 : 0x120033800    : beq        r1,0x1200338dc  : IntAlu : 
7110000: system.cpu T0 : 0x120033804    : s4addq     r2,r6,r1        : IntAlu :  D=0x00000001200922e4
7112000: system.cpu T0 : 0x120033808    : ldl        r1,0(r1)        : MemRead :  D=0x00000000fff6b054 A=0x1200922e4
7114000: system.cpu T0 : 0x12003380c    : addq       r29,r1,r1       : IntAlu :  D=0x000000012003387c
7115000: system.cpu T0 : 0x120033810    : jmp        (r1)            : IntAlu : 
7119000: system.cpu T0 : 0x12003387c    : ldl        r1,8(r16)       : MemRead :  D=0x0000000000000064 A=0x11ff920a0
7121000: system.cpu T0 : 0x120033880    : xor        r5,r1,r5        : IntAlu :  D=0x0000000000000064
7121000: system.cpu T0 : 0x120033884    : bis        r3,4,r3         : IntAlu :  D=0x0000000000000007
7121000: system.cpu T0 : 0x120033888    : br         0x1200338dc     : IntAlu : 
7124000: system.cpu T0 : 0x1200338dc    : lda        r16,16(r16)     : IntAlu :  D=0x000000011ff920a8
7126000: system.cpu T0 : 0x1200338e0    : ldq        r2,0(r16)       : MemRead :  D=0x000000000000000e A=0x11ff920a8
7128000: system.cpu T0 : 0x1200338e4    : bne        r2,0x1200337f8  : IntAlu : 
7132000: system.cpu T0 : 0x1200337f8    : lda        r2,-3(r2)       : IntAlu :  D=0x000000000000000b
7133000: system.cpu T0 : 0x1200337fc    : cmpule     r2,34,r1        : IntAlu :  D=0x0000000000000001
7134000: system.cpu T0 : 0x120033800    : beq        r1,0x1200338dc  : IntAlu : 
7134000: system.cpu T0 : 0x120033804    : s4addq     r2,r6,r1        : IntAlu :  D=0x00000001200922e8
7136000: system.cpu T0 : 0x120033808    : ldl        r1,0(r1)        : MemRead :  D=0x00000000fff6b064 A=0x1200922e8
7138000: system.cpu T0 : 0x12003380c    : addq       r29,r1,r1       : IntAlu :  D=0x000000012003388c
7139000: system.cpu T0 : 0x120033810    : jmp        (r1)            : IntAlu : 
7144000: system.cpu T0 : 0x12003388c    : ldl        r1,8(r16)       : MemRead :  D=0x0000000000000064 A=0x11ff920b0
7146000: system.cpu T0 : 0x120033890    : xor        r5,r1,r5        : IntAlu :  D=0x0000000000000000
7146000: system.cpu T0 : 0x120033894    : bis        r3,8,r3         : IntAlu :  D=0x000000000000000f
7146000: system.cpu T0 : 0x120033898    : br         0x1200338dc     : IntAlu : 
7149000: system.cpu T0 : 0x1200338dc    : lda        r16,16(r16)     : IntAlu :  D=0x000000011ff920b8
7151000: system.cpu T0 : 0x1200338e0    : ldq        r2,0(r16)       : MemRead :  D=0x0000000000000000 A=0x11ff920b8
7153000: system.cpu T0 : 0x1200338e4    : bne        r2,0x1200337f8  : IntAlu : 
7153000: system.cpu T0 : 0x1200338e8    : cmpeq      r3,15,r1        : IntAlu :  D=0x0000000000000001
7154000: system.cpu T0 : 0x1200338ec    : beq        r1,0x120033918  : IntAlu : 
7154000: system.cpu T0 : 0x1200338f0    : zapnot     r4,15,r1        : IntAlu :  D=0x0000000000000000
7155000: system.cpu T0 : 0x1200338f4    : cmpult     r31,r1,r2       : IntAlu :  D=0x0000000000000000
7155000: system.cpu T0 : 0x1200338f8    : zapnot     r5,15,r1        : IntAlu :  D=0x0000000000000000
7156000: system.cpu T0 : 0x1200338fc    : cmpult     r31,r1,r1       : IntAlu :  D=0x0000000000000000
7157000: system.cpu T0 : 0x120033900    : bis        r2,r1,r2        : IntAlu :  D=0x0000000000000000
7589000: system.cpu T0 : 0x120033904    : ldq        r1,-31792(r29)  : MemRead :  D=0x00000001200be600 A=0x1200c0bf8
7590000: system.cpu T0 : 0x120033908    : stl        r2,0(r1)        : MemWrite :  D=0x0000000000000000 A=0x1200be600
7590000: system.cpu T0 : 0x12003390c    : lda        r2,1(r31)       : IntAlu :  D=0x0000000000000001
8022000: system.cpu T0 : 0x120033910    : ldq        r1,-31680(r29)  : MemRead :  D=0x00000001200c1a98 A=0x1200c0c68
8023000: system.cpu T0 : 0x120033914    : stl        r2,0(r1)        : MemWrite :  D=0x0000000000000001 A=0x1200c1a98
8023000: system.cpu T0 : 0x120033918    : ret        (r26)           : IntAlu : 
8023000: system.cpu T0 : 0x12001dcb8    : nop        (ldq_u      r31,0(r30)) : No_OpClass : 
8023000: system.cpu T0 : 0x12001dcbc    : nop        (ldq_u      r31,0(r30)) : No_OpClass : 
8024000: system.cpu T0 : 0x12001dcc0    : lda        r1,-29944(r29)  : IntAlu :  D=0x00000001200c1330
8452000: system.cpu T0 : 0x12001dcc4    : ldl        r1,0(r1)        : MemRead :  D=0x0000000000000000 A=0x1200c1330
8454000: system.cpu T0 : 0x12001dcc8    : bne        r1,0x12001de5c  : IntAlu : 
8454000: system.cpu T0 : 0x12001dccc    : lda        r16,296(r30)    : IntAlu :  D=0x000000011ff91e48
8454000: system.cpu T0 : 0x12001dcd0    : nop        (ldq_u      r31,0(r30)) : No_OpClass : 
8455000: system.cpu T0 : 0x12001dcd4    : bsr        r26,0x120030098 : IntAlu :  D=0x000000012001dcd8
8884000: system.cpu T0 : 0x120030098    : lda        r0,339(r31)     : IntAlu :  D=0x0000000000000153
8885000: system.cpu T0 : 0x12003009c    : call_pal   callsys         : IntAlu : 
8891000: system.cpu T0 : 0x1200300a0    : bne        r19,0x1200300a8 : IntAlu : 
8892000: system.cpu T0 : 0x1200300a4    : ret        (r26)           : IntAlu : 
8894000: system.cpu T0 : 0x12001dcd8    : nop        (ldq_u      r31,0(r30)) : No_OpClass : 
8894000: system.cpu T0 : 0x12001dcdc    : nop        (ldq_u      r31,0(r30)) : No_OpClass : 
8894000: system.cpu T0 : 0x12001dce0    : lda        r2,426(r30)     : IntAlu :  D=0x000000011ff91eca
8894000: system.cpu T0 : 0x12001dce4    : beq        r0,0x12001ddc8  : IntAlu : 
9320000: system.cpu T0 : 0x12001ddc8    : bis        r31,r31,r6      : IntAlu :  D=0x0000000000000000
9320000: system.cpu T0 : 0x12001ddcc    : bis        r31,r31,r5      : IntAlu :  D=0x0000000000000000
9743000: system.cpu T0 : 0x12001ddd0    : ldbu       r1,0(r2)        : MemRead :  D=0x0000000000000033 A=0x11ff91eca
9745000: system.cpu T0 : 0x12001ddd4    : sextb      r1,r3           : IntAlu :  D=0x0000000000000033
9746000: system.cpu T0 : 0x12001ddd8    : lda        r1,-48(r3)      : IntAlu :  D=0x0000000000000003
9747000: system.cpu T0 : 0x12001dddc    : and        r1,255,r1       : IntAlu :  D=0x0000000000000003
9748000: system.cpu T0 : 0x12001dde0    : cmpule     r1,9,r1         : IntAlu :  D=0x0000000000000001
9749000: system.cpu T0 : 0x12001dde4    : bne        r1,0x12001dd5c  : IntAlu : 
10181000: system.cpu T0 : 0x12001dd5c    : subl       r3,48,r4        : IntAlu :  D=0x0000000000000003
10181000: system.cpu T0 : 0x12001dd60    : lda        r2,1(r2)        : IntAlu :  D=0x000000011ff91ecb
10183000: system.cpu T0 : 0x12001dd64    : ldbu       r1,0(r2)        : MemRead :  D=0x000000000000002e A=0x11ff91ecb
10185000: system.cpu T0 : 0x12001dd68    : sextb      r1,r3           : IntAlu :  D=0x000000000000002e
10186000: system.cpu T0 : 0x12001dd6c    : lda        r1,-48(r3)      : IntAlu :  D=0xfffffffffffffffe
10187000: system.cpu T0 : 0x12001dd70    : and        r1,255,r1       : IntAlu :  D=0x00000000000000fe
10188000: system.cpu T0 : 0x12001dd74    : cmpule     r1,9,r1         : IntAlu :  D=0x0000000000000000
10189000: system.cpu T0 : 0x12001dd78    : beq        r1,0x12001dda8  : IntAlu : 
10607000: system.cpu T0 : 0x12001dda8    : addl       r6,1,r6         : IntAlu :  D=0x0000000000000001
10607000: system.cpu T0 : 0x12001ddac    : sll        r5,8,r1         : IntAlu :  D=0x0000000000000000
10608000: system.cpu T0 : 0x12001ddb0    : bis        r4,r1,r1        : IntAlu :  D=0x0000000000000003
10609000: system.cpu T0 : 0x12001ddb4    : addl       r31,r1,r5       : IntAlu :  D=0x0000000000000003
10609000: system.cpu T0 : 0x12001ddb8    : cmpeq      r3,46,r1        : IntAlu :  D=0x0000000000000001
10610000: system.cpu T0 : 0x12001ddbc    : beq        r1,0x12001dde8  : IntAlu : 
10610000: system.cpu T0 : 0x12001ddc0    : lda        r2,1(r2)        : IntAlu :  D=0x000000011ff91ecc
10611000: system.cpu T0 : 0x12001ddc4    : br         0x12001ddd0     : IntAlu : 
10615000: system.cpu T0 : 0x12001ddd0    : ldbu       r1,0(r2)        : MemRead :  D=0x0000000000000030 A=0x11ff91ecc
10617000: system.cpu T0 : 0x12001ddd4    : sextb      r1,r3           : IntAlu :  D=0x0000000000000030
10618000: system.cpu T0 : 0x12001ddd8    : lda        r1,-48(r3)      : IntAlu :  D=0x0000000000000000
10619000: system.cpu T0 : 0x12001dddc    : and        r1,255,r1       : IntAlu :  D=0x0000000000000000
10620000: system.cpu T0 : 0x12001dde0    : cmpule     r1,9,r1         : IntAlu :  D=0x0000000000000001
10621000: system.cpu T0 : 0x12001dde4    : bne        r1,0x12001dd5c  : IntAlu : 
10624000: system.cpu T0 : 0x12001dd5c    : subl       r3,48,r4        : IntAlu :  D=0x0000000000000000
10624000: system.cpu T0 : 0x12001dd60    : lda        r2,1(r2)        : IntAlu :  D=0x000000011ff91ecd
10626000: system.cpu T0 : 0x12001dd64    : ldbu       r1,0(r2)        : MemRead :  D=0x000000000000002e A=0x11ff91ecd
10628000: system.cpu T0 : 0x12001dd68    : sextb      r1,r3           : IntAlu :  D=0x000000000000002e
10629000: system.cpu T0 : 0x12001dd6c    : lda        r1,-48(r3)      : IntAlu :  D=0xfffffffffffffffe
10630000: system.cpu T0 : 0x12001dd70    : and        r1,255,r1       : IntAlu :  D=0x00000000000000fe
10631000: system.cpu T0 : 0x12001dd74    : cmpule     r1,9,r1         : IntAlu :  D=0x0000000000000000
10632000: system.cpu T0 : 0x12001dd78    : beq        r1,0x12001dda8  : IntAlu : 
10635000: system.cpu T0 : 0x12001dda8    : addl       r6,1,r6         : IntAlu :  D=0x0000000000000002
10635000: system.cpu T0 : 0x12001ddac    : sll        r5,8,r1         : IntAlu :  D=0x0000000000000300
10636000: system.cpu T0 : 0x12001ddb0    : bis        r4,r1,r1        : IntAlu :  D=0x0000000000000300
10637000: system.cpu T0 : 0x12001ddb4    : addl       r31,r1,r5       : IntAlu :  D=0x0000000000000300
10637000: system.cpu T0 : 0x12001ddb8    : cmpeq      r3,46,r1        : IntAlu :  D=0x0000000000000001
10638000: system.cpu T0 : 0x12001ddbc    : beq        r1,0x12001dde8  : IntAlu : 
10638000: system.cpu T0 : 0x12001ddc0    : lda        r2,1(r2)        : IntAlu :  D=0x000000011ff91ece
10639000: system.cpu T0 : 0x12001ddc4    : br         0x12001ddd0     : IntAlu : 
10643000: system.cpu T0 : 0x12001ddd0    : ldbu       r1,0(r2)        : MemRead :  D=0x0000000000000030 A=0x11ff91ece
10645000: system.cpu T0 : 0x12001ddd4    : sextb      r1,r3           : IntAlu :  D=0x0000000000000030
10646000: system.cpu T0 : 0x12001ddd8    : lda        r1,-48(r3)      : IntAlu :  D=0x0000000000000000
10647000: system.cpu T0 : 0x12001dddc    : and        r1,255,r1       : IntAlu :  D=0x0000000000000000
10648000: system.cpu T0 : 0x12001dde0    : cmpule     r1,9,r1         : IntAlu :  D=0x0000000000000001
10649000: system.cpu T0 : 0x12001dde4    : bne        r1,0x12001dd5c  : IntAlu : 
10652000: system.cpu T0 : 0x12001dd5c    : subl       r3,48,r4        : IntAlu :  D=0x0000000000000000
10652000: system.cpu T0 : 0x12001dd60    : lda        r2,1(r2)        : IntAlu :  D=0x000000011ff91ecf
10654000: system.cpu T0 : 0x12001dd64    : ldbu       r1,0(r2)        : MemRead :  D=0x0000000000000000 A=0x11ff91ecf
10656000: system.cpu T0 : 0x12001dd68    : sextb      r1,r3           : IntAlu :  D=0x0000000000000000
10657000: system.cpu T0 : 0x12001dd6c    : lda        r1,-48(r3)      : IntAlu :  D=0xffffffffffffffd0
10658000: system.cpu T0 : 0x12001dd70    : and        r1,255,r1       : IntAlu :  D=0x00000000000000d0
10659000: system.cpu T0 : 0x12001dd74    : cmpule     r1,9,r1         : IntAlu :  D=0x0000000000000000
10660000: system.cpu T0 : 0x12001dd78    : beq        r1,0x12001dda8  : IntAlu : 
10663000: system.cpu T0 : 0x12001dda8    : addl       r6,1,r6         : IntAlu :  D=0x0000000000000003
10663000: system.cpu T0 : 0x12001ddac    : sll        r5,8,r1         : IntAlu :  D=0x0000000000030000
10664000: system.cpu T0 : 0x12001ddb0    : bis        r4,r1,r1        : IntAlu :  D=0x0000000000030000
10665000: system.cpu T0 : 0x12001ddb4    : addl       r31,r1,r5       : IntAlu :  D=0x0000000000030000
10665000: system.cpu T0 : 0x12001ddb8    : cmpeq      r3,46,r1        : IntAlu :  D=0x0000000000000000
10666000: system.cpu T0 : 0x12001ddbc    : beq        r1,0x12001dde8  : IntAlu : 
10669000: system.cpu T0 : 0x12001dde8    : cmple      r6,2,r1         : IntAlu :  D=0x0000000000000000
10670000: system.cpu T0 : 0x12001ddec    : beq        r1,0x12001de00  : IntAlu : 
10674000: system.cpu T0 : 0x12001de00    : addl       r31,r5,r3       : IntAlu :  D=0x0000000000030000
10675000: system.cpu T0 : 0x12001de04    : blt        r3,0x12001de4c  : IntAlu : 
11098000: system.cpu T0 : 0x12001de08    : ldq        r1,-30288(r29)  : MemRead :  D=0x00000001200c1a80 A=0x1200c11d8
11101000: system.cpu T0 : 0x12001de0c    : ldl        r1,0(r1)        : MemRead :  D=0x0000000000000000 A=0x1200c1a80
11103000: system.cpu T0 : 0x12001de10    : beq        r1,0x12001de24  : IntAlu : 
11107000: system.cpu T0 : 0x12001de24    : ldq        r1,-30288(r29)  : MemRead :  D=0x00000001200c1a80 A=0x1200c11d8
11108000: system.cpu T0 : 0x12001de28    : stl        r3,0(r1)        : MemWrite :  D=0x0000000000030000 A=0x1200c1a80
11108000: system.cpu T0 : 0x12001de2c    : ldah       r1,2(r31)       : IntAlu :  D=0x0000000000020000
11108000: system.cpu T0 : 0x12001de30    : lda        r1,1561(r1)     : IntAlu :  D=0x0000000000020619
11108000: system.cpu T0 : 0x12001de34    : cmple      r3,r1,r1        : IntAlu :  D=0x0000000000000000
11109000: system.cpu T0 : 0x12001de38    : beq        r1,0x12001de5c  : IntAlu : 
11531000: system.cpu T0 : 0x12001de5c    : nop        (ldq_u      r31,0(r30)) : No_OpClass : 
11531000: system.cpu T0 : 0x12001de60    : bsr        r26,0x12001e430 : IntAlu :  D=0x000000012001de64
11961000: system.cpu T0 : 0x12001e430    : lda        r30,-16(r30)    : IntAlu :  D=0x000000011ff91d10
11961000: system.cpu T0 : 0x12001e434    : stq        r26,0(r30)      : MemWrite :  D=0x000000012001de64 A=0x11ff91d10
11961000: system.cpu T0 : 0x12001e438    : lda        r16,16(r31)     : IntAlu :  D=0x0000000000000010
11961000: system.cpu T0 : 0x12001e43c    : lda        r17,16(r31)     : IntAlu :  D=0x0000000000000010
11970000: system.cpu T0 : 0x12001e440    : bsr        r26,0x12001e1cc : IntAlu :  D=0x000000012001e444
12395000: system.cpu T0 : 0x12001e1cc    : lda        r30,-80(r30)    : IntAlu :  D=0x000000011ff91cc0
12395000: system.cpu T0 : 0x12001e1d0    : stq        r26,0(r30)      : MemWrite :  D=0x000000012001e444 A=0x11ff91cc0
12395000: system.cpu T0 : 0x12001e1d4    : stq        r9,8(r30)       : MemWrite :  D=0x0000000000000000 A=0x11ff91cc8
12395000: system.cpu T0 : 0x12001e1d8    : stq        r10,16(r30)     : MemWrite :  D=0x0000000000000000 A=0x11ff91cd0
12396000: system.cpu T0 : 0x12001e1dc    : stq        r11,24(r30)     : MemWrite :  D=0x0000000000000000 A=0x11ff91cd8
12396000: system.cpu T0 : 0x12001e1e0    : stq        r12,32(r30)     : MemWrite :  D=0x000000012001e450 A=0x11ff91ce0
12396000: system.cpu T0 : 0x12001e1e4    : stq        r13,40(r30)     : MemWrite :  D=0x000000012001e4c0 A=0x11ff91ce8
12396000: system.cpu T0 : 0x12001e1e8    : stq        r14,48(r30)     : MemWrite :  D=0x0000000000000000 A=0x11ff91cf0
12397000: system.cpu T0 : 0x12001e1ec    : stq        r15,56(r30)     : MemWrite :  D=0x0000000000000000 A=0x11ff91cf8
12397000: system.cpu T0 : 0x12001e1f0    : bis        r31,r16,r27     : IntAlu :  D=0x0000000000000010
12836000: system.cpu T0 : 0x12001e1f4    : ldq        r1,-31240(r29)  : MemRead :  D=0x00000001200c1a28 A=0x1200c0e20
13261000: system.cpu T0 : 0x12001e1f8    : ldq        r24,0(r1)       : MemRead :  D=0x0000000120000040 A=0x1200c1a28
13263000: system.cpu T0 : 0x12001e1fc    : beq        r24,0x12001e408 : IntAlu : 
13690000: system.cpu T0 : 0x12001e200    : ldq        r1,-30552(r29)  : MemRead :  D=0x00000001200c1a60 A=0x1200c10d0
13705000: system.cpu T0 : 0x12001e204    : ldq        r1,0(r1)        : MemRead :  D=0x0000000000000005 A=0x1200c1a60
13707000: system.cpu T0 : 0x12001e208    : s8subq     r1,r1,r1        : IntAlu :  D=0x0000000000000023
13708000: system.cpu T0 : 0x12001e20c    : s8addq     r1,r24,r2       : IntAlu :  D=0x0000000120000158
13709000: system.cpu T0 : 0x12001e210    : cmpule     r2,r24,r1       : IntAlu :  D=0x0000000000000000
13710000: system.cpu T0 : 0x12001e214    : bne        r1,0x12001e408  : IntAlu : 
13710000: system.cpu T0 : 0x12001e218    : ldl        r1,0(r24)       : MemRead :  A=0x120000040
14139000: system.cpu T0 : 0x12001e218    : ldl        r1,0(r24)       : MemRead :  D=0x0000000000000001 A=0x120000040
14141000: system.cpu T0 : 0x12001e21c    : cmpeq      r1,7,r1         : IntAlu :  D=0x0000000000000000
14142000: system.cpu T0 : 0x12001e220    : beq        r1,0x12001e260  : IntAlu : 
14567000: system.cpu T0 : 0x12001e260    : lda        r24,56(r24)     : IntAlu :  D=0x0000000120000078
14568000: system.cpu T0 : 0x12001e264    : cmpule     r2,r24,r1       : IntAlu :  D=0x0000000000000000
14569000: system.cpu T0 : 0x12001e268    : beq        r1,0x12001e228  : IntAlu : 
14573000: system.cpu T0 : 0x12001e228    : ldl        r1,0(r24)       : MemRead :  D=0x0000000000000001 A=0x120000078
14575000: system.cpu T0 : 0x12001e22c    : cmpeq      r1,7,r1         : IntAlu :  D=0x0000000000000000
14576000: system.cpu T0 : 0x12001e230    : beq        r1,0x12001e260  : IntAlu : 
14579000: system.cpu T0 : 0x12001e260    : lda        r24,56(r24)     : IntAlu :  D=0x00000001200000b0
14580000: system.cpu T0 : 0x12001e264    : cmpule     r2,r24,r1       : IntAlu :  D=0x0000000000000000
14581000: system.cpu T0 : 0x12001e268    : beq        r1,0x12001e228  : IntAlu : 
15007000: system.cpu T0 : 0x12001e228    : ldl        r1,0(r24)       : MemRead :  D=0x0000000000000004 A=0x1200000b0
15009000: system.cpu T0 : 0x12001e22c    : cmpeq      r1,7,r1         : IntAlu :  D=0x0000000000000000
15010000: system.cpu T0 : 0x12001e230    : beq        r1,0x12001e260  : IntAlu : 
15013000: system.cpu T0 : 0x12001e260    : lda        r24,56(r24)     : IntAlu :  D=0x00000001200000e8
15014000: system.cpu T0 : 0x12001e264    : cmpule     r2,r24,r1       : IntAlu :  D=0x0000000000000000
15015000: system.cpu T0 : 0x12001e268    : beq        r1,0x12001e228  : IntAlu : 
15441000: system.cpu T0 : 0x12001e228    : ldl        r1,0(r24)       : MemRead :  D=0x0000000000000007 A=0x1200000e8
15443000: system.cpu T0 : 0x12001e22c    : cmpeq      r1,7,r1         : IntAlu :  D=0x0000000000000001
15444000: system.cpu T0 : 0x12001e230    : beq        r1,0x12001e260  : IntAlu : 
15870000: system.cpu T0 : 0x12001e234    : ldq        r15,40(r24)     : MemRead :  D=0x0000000000000054 A=0x120000110
15877000: system.cpu T0 : 0x12001e238    : ldq        r1,32(r24)      : MemRead :  D=0x0000000000000020 A=0x120000108
15879000: system.cpu T0 : 0x12001e23c    : stq        r1,72(r30)      : MemWrite :  D=0x0000000000000020 A=0x11ff91d08
15880000: system.cpu T0 : 0x12001e240    : ldq        r25,16(r24)     : MemRead :  D=0x00000001200be000 A=0x1200000f8
15882000: system.cpu T0 : 0x12001e244    : stq        r25,64(r30)     : MemWrite :  D=0x00000001200be000 A=0x11ff91d00
15883000: system.cpu T0 : 0x12001e248    : ldq        r25,48(r24)     : MemRead :  D=0x0000000000000008 A=0x120000118
15885000: system.cpu T0 : 0x12001e24c    : cmpule     r17,r25,r1      : IntAlu :  D=0x0000000000000000
15885000: system.cpu T0 : 0x12001e250    : bis        r31,r25,r14     : IntAlu :  D=0x0000000000000008
15886000: system.cpu T0 : 0x12001e254    : cmoveq     r1,r17,r14      : IntAlu :  D=0x0000000000000010
15886000: system.cpu T0 : 0x12001e258    : bne        r25,0x12001e270 : IntAlu : 
15889000: system.cpu T0 : 0x12001e270    : lda        r24,-1(r25)     : IntAlu :  D=0x0000000000000007
15890000: system.cpu T0 : 0x12001e274    : addq       r24,r27,r24     : IntAlu :  D=0x0000000000000017
15890000: system.cpu T0 : 0x12001e278    : nop        (ldq_u      r31,0(r30)) : No_OpClass : 
15890000: system.cpu T0 : 0x12001e27c    : bsr        r23,__divqu     : IntAlu :  D=0x000000012001e280
16314000: system.cpu T0 : 0x1200318b0    : lda        r30,-64(r30)    : IntAlu :  D=0x000000011ff91c80
16314000: system.cpu T0 : 0x1200318b4    : stt        f0,0(r30)       : MemWrite :  D=0x0000000000000000 A=0x11ff91c80
16317000: system.cpu T0 : 0x1200318b8    : excb                       : No_OpClass : 
16317000: system.cpu T0 : 0x1200318bc    : beq        r25,0x120031a40 : IntAlu : 
16323000: system.cpu T0 : 0x1200318c0    : stt        f1,8(r30)       : MemWrite :  D=0x0000000000000000 A=0x11ff91c88
16323000: system.cpu T0 : 0x1200318c4    : stt        f3,48(r30)      : MemWrite :  D=0x0000000000000000 A=0x11ff91cb0
16326000: system.cpu T0 : 0x1200318c8    : mf_fpcr    f106,f3         : FloatAdd :  D=0x0000000000000000
16326000: system.cpu T0 : 0x1200318cc    : itoft      r24,f0          : FloatCvt :  D=0x0000000000000017
16326000: system.cpu T0 : 0x1200318d0    : itoft      r25,f1          : FloatCvt :  D=0x0000000000000008
16327000: system.cpu T0 : 0x1200318d4    : cvtqt      f0,f0           : FloatAdd :  D=0x4037000000000000
16327000: system.cpu T0 : 0x1200318d8    : cvtqt      f1,f1           : FloatAdd :  D=0x4020000000000000
16327000: system.cpu T0 : 0x1200318dc    : blt        r24,0x120031920 : IntAlu : 
16328000: system.cpu T0 : 0x1200318e0    : divt/c     f0,f1,f0        : FloatDiv :  D=0x4007000000000000
16745000: system.cpu T0 : 0x1200318e4    : ldt        f1,8(r30)       : MemRead :  D=0x0000000000000000 A=0x11ff91c88
16745000: system.cpu T0 : 0x1200318e8    : blt        r25,0x120031a20 : IntAlu : 
16745000: system.cpu T0 : 0x1200318ec    : srl        r24,53,r28      : IntAlu :  D=0x0000000000000000
16745000: system.cpu T0 : 0x1200318f0    : bne        r28,0x120031950 : IntAlu : 
16746000: system.cpu T0 : 0x1200318f4    : cvttq/c    f0,f0           : FloatAdd :  D=0x0000000000000002
16749000: system.cpu T0 : 0x1200318f8    : excb                       : No_OpClass : 
16752000: system.cpu T0 : 0x1200318fc    : mt_fpcr    f3,f106         : FloatAdd :  D=0x0000000000000000
16752000: system.cpu T0 : 0x120031900    : ftoit      f0,r27          : FloatCvt :  D=0x0000000000000002
16753000: system.cpu T0 : 0x120031904    : ldt        f0,0(r30)       : MemRead :  D=0x0000000000000000 A=0x11ff91c80
16754000: system.cpu T0 : 0x120031908    : ldt        f3,48(r30)      : MemRead :  D=0x0000000000000000 A=0x11ff91cb0
16754000: system.cpu T0 : 0x12003190c    : lda        r30,64(r30)     : IntAlu :  D=0x000000011ff91cc0
16754000: system.cpu T0 : 0x120031910    : ret        (r23)           : IntAlu : 
16756000: system.cpu T0 : 0x12001e280    : bis        r31,r25,r12     : IntAlu :  D=0x0000000000000008
16756000: system.cpu T0 : 0x12001e284    : mulq       r27,r25,r13     : IntMult :  D=0x0000000000000010
16756000: system.cpu T0 : 0x12001e288    : ldah       r1,0(r29)       : IntAlu :  D=0x00000001200c8828
17180000: system.cpu T0 : 0x12001e28c    : ldq        r16,-30120(r1)  : MemRead :  D=0x0000000000000800 A=0x1200c1280
17182000: system.cpu T0 : 0x12001e290    : lda        r16,1712(r16)   : IntAlu :  D=0x0000000000000eb0
17183000: system.cpu T0 : 0x12001e294    : addq       r16,r15,r16     : IntAlu :  D=0x0000000000000f04
17184000: system.cpu T0 : 0x12001e298    : addq       r16,r14,r16     : IntAlu :  D=0x0000000000000f14
17185000: system.cpu T0 : 0x12001e29c    : addq       r16,r13,r16     : IntAlu :  D=0x0000000000000f24
17185000: system.cpu T0 : 0x12001e2a0    : nop        (ldq_u      r31,0(r30)) : No_OpClass : 
17185000: system.cpu T0 : 0x12001e2a4    : bsr        r26,0x120030898 : IntAlu :  D=0x000000012001e2a8
17608000: system.cpu T0 : 0x120030898    : lda        r30,-32(r30)    : IntAlu :  D=0x000000011ff91ca0
17608000: system.cpu T0 : 0x12003089c    : stq        r26,0(r30)      : MemWrite :  D=0x000000012001e2a8 A=0x11ff91ca0
17608000: system.cpu T0 : 0x1200308a0    : stq        r9,8(r30)       : MemWrite :  D=0x0000000000000000 A=0x11ff91ca8
17608000: system.cpu T0 : 0x1200308a4    : stq        r10,16(r30)     : MemWrite :  D=0x0000000000000000 A=0x11ff91cb0
17609000: system.cpu T0 : 0x1200308a8    : bis        r31,r16,r10     : IntAlu :  D=0x0000000000000f24
18039000: system.cpu T0 : 0x1200308ac    : ldq        r1,-30600(r29)  : MemRead :  D=0x00000001200c1b20 A=0x1200c10a0
18464000: system.cpu T0 : 0x1200308b0    : ldq        r1,0(r1)        : MemRead :  D=0x0000000000000000 A=0x1200c1b20
18466000: system.cpu T0 : 0x1200308b4    : beq        r1,0x1200308c4  : IntAlu : 
18469000: system.cpu T0 : 0x1200308c4    : bis        r31,r31,r16     : IntAlu :  D=0x0000000000000000
18469000: system.cpu T0 : 0x1200308c8    : nop        (ldq_u      r31,0(r30)) : No_OpClass : 
18469000: system.cpu T0 : 0x1200308cc    : bsr        r26,0x120061918 : IntAlu :  D=0x00000001200308d0
18899000: system.cpu T0 : 0x120061918    : subq       r30,8,r30       : IntAlu :  D=0x000000011ff91c98
18899000: system.cpu T0 : 0x12006191c    : stq        r16,0(r30)      : MemWrite :  D=0x0000000000000000 A=0x11ff91c98
18899000: system.cpu T0 : 0x120061920    : lda        r0,17(r31)      : IntAlu :  D=0x0000000000000011
18900000: system.cpu T0 : 0x120061924    : call_pal   callsys         : IntAlu : 
18907000: system.cpu T0 : 0x120061928    : ldq        r16,0(r30)      : MemRead :  D=0x0000000000000000 A=0x11ff91c98
18907000: system.cpu T0 : 0x12006192c    : bne        r19,0x120061958 : IntAlu : 
18907000: system.cpu T0 : 0x120061930    : beq        r0,0x120061944  : IntAlu : 
18909000: system.cpu T0 : 0x120061934    : cmoveq     r16,r0,r16      : IntAlu :  D=0x000000012033a000
18910000: system.cpu T0 : 0x120061938    : xor        r16,r0,r1       : IntAlu :  D=0x0000000000000000
18911000: system.cpu T0 : 0x12006193c    : bne        r1,0x120061954  : IntAlu : 
19325000: system.cpu T0 : 0x120061940    : bis        r31,r31,r0      : IntAlu :  D=0x0000000000000000
19326000: system.cpu T0 : 0x120061944    : ldq        r28,-30600(r29) : MemRead :  D=0x00000001200c1b20 A=0x1200c10a0
19327000: system.cpu T0 : 0x120061948    : stq        r16,0(r28)      : MemWrite :  D=0x000000012033a000 A=0x1200c1b20
19327000: system.cpu T0 : 0x12006194c    : addq       r30,8,r30       : IntAlu :  D=0x000000011ff91ca0
19327000: system.cpu T0 : 0x120061950    : ret        (r26)           : IntAlu : 
19329000: system.cpu T0 : 0x1200308d0    : nop        (ldq_u      r31,0(r30)) : No_OpClass : 
19329000: system.cpu T0 : 0x1200308d4    : nop        (ldq_u      r31,0(r30)) : No_OpClass : 
19329000: system.cpu T0 : 0x1200308d8    : blt        r0,0x12003090c  : IntAlu : 
19330000: system.cpu T0 : 0x1200308dc    : bne        r10,0x1200308ec : IntAlu : 
19334000: system.cpu T0 : 0x1200308ec    : ldq        r1,-30600(r29)  : MemRead :  D=0x00000001200c1b20 A=0x1200c10a0
19337000: system.cpu T0 : 0x1200308f0    : ldq        r9,0(r1)        : MemRead :  D=0x000000012033a000 A=0x1200c1b20
19339000: system.cpu T0 : 0x1200308f4    : addq       r9,r10,r16      : IntAlu :  D=0x000000012033af24
19339000: system.cpu T0 : 0x1200308f8    : nop        (ldq_u      r31,0(r30)) : No_OpClass : 
19339000: system.cpu T0 : 0x1200308fc    : bsr        r26,0x120061918 : IntAlu :  D=0x0000000120030900
19339000: system.cpu T0 : 0x120061918    : subq       r30,8,r30       : IntAlu :  D=0x000000011ff91c98
19340000: system.cpu T0 : 0x12006191c    : stq        r16,0(r30)      : MemWrite :  D=0x000000012033af24 A=0x11ff91c98
19340000: system.cpu T0 : 0x120061920    : lda        r0,17(r31)      : IntAlu :  D=0x0000000000000011
19341000: system.cpu T0 : 0x120061924    : call_pal   callsys         : IntAlu : 
19348000: system.cpu T0 : 0x120061928    : ldq        r16,0(r30)      : MemRead :  D=0x000000012033af24 A=0x11ff91c98
19348000: system.cpu T0 : 0x12006192c    : bne        r19,0x120061958 : IntAlu : 
19348000: system.cpu T0 : 0x120061930    : beq        r0,0x120061944  : IntAlu : 
19350000: system.cpu T0 : 0x120061934    : cmoveq     r16,r0,r16      : IntAlu :  D=0x000000012033af24
19351000: system.cpu T0 : 0x120061938    : xor        r16,r0,r1       : IntAlu :  D=0x0000000000000000
19352000: system.cpu T0 : 0x12006193c    : bne        r1,0x120061954  : IntAlu : 
19352000: system.cpu T0 : 0x120061940    : bis        r31,r31,r0      : IntAlu :  D=0x0000000000000000
19353000: system.cpu T0 : 0x120061944    : ldq        r28,-30600(r29) : MemRead :  D=0x00000001200c1b20 A=0x1200c10a0
19354000: system.cpu T0 : 0x120061948    : stq        r16,0(r28)      : MemWrite :  D=0x000000012033af24 A=0x1200c1b20
19354000: system.cpu T0 : 0x12006194c    : addq       r30,8,r30       : IntAlu :  D=0x000000011ff91ca0
19354000: system.cpu T0 : 0x120061950    : ret        (r26)           : IntAlu : 
19758000: system.cpu T0 : 0x120030900    : nop        (ldq_u      r31,0(r30)) : No_OpClass : 
19758000: system.cpu T0 : 0x120030904    : nop        (ldq_u      r31,0(r30)) : No_OpClass : 
19758000: system.cpu T0 : 0x120030908    : bge        r0,0x120030910  : IntAlu : 
19761000: system.cpu T0 : 0x120030910    : bis        r31,r9,r0       : IntAlu :  D=0x000000012033a000
19762000: system.cpu T0 : 0x120030914    : ldq        r26,0(r30)      : MemRead :  D=0x000000012001e2a8 A=0x11ff91ca0
19763000: system.cpu T0 : 0x120030918    : ldq        r9,8(r30)       : MemRead :  D=0x0000000000000000 A=0x11ff91ca8
19763000: system.cpu T0 : 0x12003091c    : ldq        r10,16(r30)     : MemRead :  D=0x0000000000000000 A=0x11ff91cb0
19763000: system.cpu T0 : 0x120030920    : lda        r30,32(r30)     : IntAlu :  D=0x000000011ff91cc0
19764000: system.cpu T0 : 0x120030924    : ret        (r26)           : IntAlu : 
19765000: system.cpu T0 : 0x12001e2a8    : nop        (ldq_u      r31,0(r30)) : No_OpClass : 
19765000: system.cpu T0 : 0x12001e2ac    : nop        (ldq_u      r31,0(r30)) : No_OpClass : 
19765000: system.cpu T0 : 0x12001e2b0    : addq       r0,r14,r0       : IntAlu :  D=0x000000012033a010
19766000: system.cpu T0 : 0x12001e2b4    : lda        r0,1711(r0)     : IntAlu :  D=0x000000012033a6bf
19766000: system.cpu T0 : 0x12001e2b8    : subq       r31,r14,r1      : IntAlu :  D=0xfffffffffffffff0
19767000: system.cpu T0 : 0x12001e2bc    : and        r0,r1,r11       : IntAlu :  D=0x000000012033a6b0
20189000: system.cpu T0 : 0x12001e2c0    : ldah       r9,0(r29)       : IntAlu :  D=0x00000001200c8828
20189000: system.cpu T0 : 0x12001e2c4    : lda        r1,62(r31)      : IntAlu :  D=0x000000000000003e
20190000: system.cpu T0 : 0x12001e2c8    : stq        r1,-25272(r9)   : MemWrite :  D=0x000000000000003e A=0x1200c2570
20196000: system.cpu T0 : 0x12001e2c8    : stq        r1,-25272(r9)   : MemWrite :  D=0x000000000000003e A=0x1200c2570
20196000: system.cpu T0 : 0x12001e2cc    : lda        r9,-25272(r9)   : IntAlu :  D=0x00000001200c2570
20196000: system.cpu T0 : 0x12001e2d0    : addq       r11,r13,r16     : IntAlu :  D=0x000000012033a6c0
20197000: system.cpu T0 : 0x12001e2d4    : stq        r16,32(r9)      : MemWrite :  D=0x000000012033a6c0 A=0x1200c2590
20197000: system.cpu T0 : 0x12001e2d8    : ldah       r10,0(r29)      : IntAlu :  D=0x00000001200c8828
20198000: system.cpu T0 : 0x12001e2dc    : lda        r10,-23208(r10) : IntAlu :  D=0x00000001200c2d80
20198000: system.cpu T0 : 0x12001e2e0    : stq        r13,1080(r10)   : MemWrite :  D=0x0000000000000010 A=0x1200c31b8
20198000: system.cpu T0 : 0x12001e2e4    : lda        r1,1(r31)       : IntAlu :  D=0x0000000000000001
20199000: system.cpu T0 : 0x12001e2e8    : stb        r1,40(r9)       : MemWrite :  D=0x0000000000000001 A=0x1200c2598
20200000: system.cpu T0 : 0x12001e2ec    : ldq        r17,64(r30)     : MemRead :  D=0x00000001200be000 A=0x11ff91d00
20201000: system.cpu T0 : 0x12001e2f0    : ldq        r18,72(r30)     : MemRead :  D=0x0000000000000020 A=0x11ff91d08
20201000: system.cpu T0 : 0x12001e2f4    : nop        (ldq_u      r31,0(r30)) : No_OpClass : 
20201000: system.cpu T0 : 0x12001e2f8    : bsr        r26,memcpy      : IntAlu :  D=0x000000012001e2fc
20649000: system.cpu T0 : 0x12002ed20    : bis        r31,r16,r0      : IntAlu :  D=0x000000012033a6c0
20649000: system.cpu T0 : 0x12002ed24    : ble        r18,0x12002ef50 : IntAlu : 
20649000: system.cpu T0 : 0x12002ed28    : xor        r16,r17,r1      : IntAlu :  D=0x00000000003846c0
20650000: system.cpu T0 : 0x12002ed2c    : and        r1,7,r1         : IntAlu :  D=0x0000000000000000
20651000: system.cpu T0 : 0x12002ed30    : bne        r1,0x12002eeb0  : IntAlu : 
20651000: system.cpu T0 : 0x12002ed34    : and        r16,7,r1        : IntAlu :  D=0x0000000000000000
20652000: system.cpu T0 : 0x12002ed38    : beq        r1,0x12002ed60  : IntAlu : 
21074000: system.cpu T0 : 0x12002ed60    : cmple      r18,127,r1      : IntAlu :  D=0x0000000000000001
21075000: system.cpu T0 : 0x12002ed64    : bne        r1,0x12002ee40  : IntAlu : 
21507000: system.cpu T0 : 0x12002ee40    : subq       r18,8,r18       : IntAlu :  D=0x0000000000000018
21508000: system.cpu T0 : 0x12002ee44    : blt        r18,0x12002ee70 : IntAlu : 
21508000: system.cpu T0 : 0x12002ee48    : nop        (bis        r31,r31,r31) : No_OpClass : 
21508000: system.cpu T0 : 0x12002ee4c    : nop        (bis        r31,r31,r31) : No_OpClass : 
21940000: system.cpu T0 : 0x12002ee50    : ldq        r1,0(r17)       : MemRead :  D=0x00000001200c06a8 A=0x1200be000
21940000: system.cpu T0 : 0x12002ee54    : subq       r18,8,r18       : IntAlu :  D=0x0000000000000010
21940000: system.cpu T0 : 0x12002ee58    : addq       r17,8,r17       : IntAlu :  D=0x00000001200be008
21940000: system.cpu T0 : 0x12002ee5c    : nop        (bis        r31,r31,r31) : No_OpClass : 
21942000: system.cpu T0 : 0x12002ee60    : stq        r1,0(r16)       : MemWrite :  D=0x00000001200c06a8 A=0x12033a6c0
21948000: system.cpu T0 : 0x12002ee60    : stq        r1,0(r16)       : MemWrite :  D=0x00000001200c06a8 A=0x12033a6c0
21948000: system.cpu T0 : 0x12002ee64    : addq       r16,8,r16       : IntAlu :  D=0x000000012033a6c8
21948000: system.cpu T0 : 0x12002ee68    : bge        r18,0x12002ee50 : IntAlu : 
21952000: system.cpu T0 : 0x12002ee50    : ldq        r1,0(r17)       : MemRead :  D=0x00000001200c06a8 A=0x1200be008
21952000: system.cpu T0 : 0x12002ee54    : subq       r18,8,r18       : IntAlu :  D=0x0000000000000008
21952000: system.cpu T0 : 0x12002ee58    : addq       r17,8,r17       : IntAlu :  D=0x00000001200be010
21952000: system.cpu T0 : 0x12002ee5c    : nop        (bis        r31,r31,r31) : No_OpClass : 
21954000: system.cpu T0 : 0x12002ee60    : stq        r1,0(r16)       : MemWrite :  D=0x00000001200c06a8 A=0x12033a6c8
21954000: system.cpu T0 : 0x12002ee64    : addq       r16,8,r16       : IntAlu :  D=0x000000012033a6d0
21954000: system.cpu T0 : 0x12002ee68    : bge        r18,0x12002ee50 : IntAlu : 
21958000: system.cpu T0 : 0x12002ee50    : ldq        r1,0(r17)       : MemRead :  D=0x00000001200c06c8 A=0x1200be010
21958000: system.cpu T0 : 0x12002ee54    : subq       r18,8,r18       : IntAlu :  D=0x0000000000000000
21958000: system.cpu T0 : 0x12002ee58    : addq       r17,8,r17       : IntAlu :  D=0x00000001200be018
21958000: system.cpu T0 : 0x12002ee5c    : nop        (bis        r31,r31,r31) : No_OpClass : 
21960000: system.cpu T0 : 0x12002ee60    : stq        r1,0(r16)       : MemWrite :  D=0x00000001200c06c8 A=0x12033a6d0
21960000: system.cpu T0 : 0x12002ee64    : addq       r16,8,r16       : IntAlu :  D=0x000000012033a6d8
21960000: system.cpu T0 : 0x12002ee68    : bge        r18,0x12002ee50 : IntAlu : 
21964000: system.cpu T0 : 0x12002ee50    : ldq        r1,0(r17)       : MemRead :  D=0x00000001200c06b0 A=0x1200be018
21964000: system.cpu T0 : 0x12002ee54    : subq       r18,8,r18       : IntAlu :  D=0xfffffffffffffff8
21964000: system.cpu T0 : 0x12002ee58    : addq       r17,8,r17       : IntAlu :  D=0x00000001200be020
21964000: system.cpu T0 : 0x12002ee5c    : nop        (bis        r31,r31,r31) : No_OpClass : 
21966000: system.cpu T0 : 0x12002ee60    : stq        r1,0(r16)       : MemWrite :  D=0x00000001200c06b0 A=0x12033a6d8
21966000: system.cpu T0 : 0x12002ee64    : addq       r16,8,r16       : IntAlu :  D=0x000000012033a6e0
21966000: system.cpu T0 : 0x12002ee68    : bge        r18,0x12002ee50 : IntAlu : 
21966000: system.cpu T0 : 0x12002ee6c    : nop        (bis        r31,r31,r31) : No_OpClass : 
21967000: system.cpu T0 : 0x12002ee70    : addq       r18,8,r18       : IntAlu :  D=0x0000000000000000
21968000: system.cpu T0 : 0x12002ee74    : ble        r18,0x12002ef50 : IntAlu : 
22394000: system.cpu T0 : 0x12002ef50    : ret        (r26)           : IntAlu : 
22397000: system.cpu T0 : 0x12001e2fc    : nop        (ldq_u      r31,0(r30)) : No_OpClass : 
22819000: system.cpu T0 : 0x12001e300    : nop        (ldq_u      r31,0(r30)) : No_OpClass : 
22819000: system.cpu T0 : 0x12001e304    : lda        r9,16(r9)       : IntAlu :  D=0x00000001200c2580
22820000: system.cpu T0 : 0x12001e308    : stq        r9,0(r11)       : MemWrite :  D=0x00000001200c2580 A=0x12033a6b0
22820000: system.cpu T0 : 0x12001e30c    : bis        r31,r11,r16     : IntAlu :  D=0x000000012033a6b0
22823000: system.cpu T0 : 0x12001e310    : call_pal   wruniq          : IntAlu :  D=0x000000012033a6b0
22823000: system.cpu T0 : 0x12001e314    : stq        r12,1064(r10)   : MemWrite :  D=0x0000000000000008 A=0x1200c31a8
22823000: system.cpu T0 : 0x12001e318    : stq        r15,1056(r10)   : MemWrite :  D=0x0000000000000054 A=0x1200c31a0
22825000: system.cpu T0 : 0x12001e31c    : ldq        r27,64(r30)     : MemRead :  D=0x00000001200be000 A=0x11ff91d00
22827000: system.cpu T0 : 0x12001e320    : stq        r27,1040(r10)   : MemWrite :  D=0x00000001200be000 A=0x1200c3190
22829000: system.cpu T0 : 0x12001e324    : ldq        r1,72(r30)      : MemRead :  D=0x0000000000000020 A=0x11ff91d08
22831000: system.cpu T0 : 0x12001e328    : stq        r1,1048(r10)    : MemWrite :  D=0x0000000000000020 A=0x1200c3198
23261000: system.cpu T0 : 0x12001e32c    : ldq        r2,800(r10)     : MemRead :  D=0x0000000000000000 A=0x1200c30a0
23261000: system.cpu T0 : 0x12001e330    : lda        r1,-3(r31)      : IntAlu :  D=0xfffffffffffffffd
23261000: system.cpu T0 : 0x12001e334    : sll        r1,32,r1        : IntAlu :  D=0xfffffffd00000000
23261000: system.cpu T0 : 0x12001e338    : lda        r1,-1(r1)       : IntAlu :  D=0xfffffffcffffffff
23263000: system.cpu T0 : 0x12001e33c    : and        r2,r1,r2        : IntAlu :  D=0x0000000000000000
23264000: system.cpu T0 : 0x12001e340    : stq        r2,800(r10)     : MemWrite :  D=0x0000000000000000 A=0x1200c30a0
23264000: system.cpu T0 : 0x12001e344    : lda        r3,1(r31)       : IntAlu :  D=0x0000000000000001
23265000: system.cpu T0 : 0x12001e348    : stq        r3,1088(r10)    : MemWrite :  D=0x0000000000000001 A=0x1200c31c0
23265000: system.cpu T0 : 0x12001e34c    : ldah       r2,0(r29)       : IntAlu :  D=0x00000001200c8828
23265000: system.cpu T0 : 0x12001e350    : lda        r1,64(r31)      : IntAlu :  D=0x0000000000000040
23266000: system.cpu T0 : 0x12001e354    : stq        r1,-24248(r2)   : MemWrite :  D=0x0000000000000040 A=0x1200c2970
23717000: system.cpu T0 : 0x12001e358    : ldq        r1,-31864(r29)  : MemRead :  D=0x00000001200c19a8 A=0x1200c0bb0
23718000: system.cpu T0 : 0x12001e35c    : stq        r3,0(r1)        : MemWrite :  D=0x0000000000000001 A=0x1200c19a8
23718000: system.cpu T0 : 0x12001e360    : lda        r2,-24248(r2)   : IntAlu :  D=0x00000001200c2970
24164000: system.cpu T0 : 0x12001e364    : ldq        r1,-31440(r29)  : MemRead :  D=0x00000001200c19b0 A=0x1200c0d58
24165000: system.cpu T0 : 0x12001e368    : stq        r2,0(r1)        : MemWrite :  D=0x00000001200c2970 A=0x1200c19b0
24165000: system.cpu T0 : 0x12001e36c    : stq        r10,40(r2)      : MemWrite :  D=0x00000001200c2d80 A=0x1200c2998
24165000: system.cpu T0 : 0x12001e370    : bne        r12,0x12001e37c : IntAlu : 
24165000: system.cpu T0 : 0x12001e37c    : addq       r15,r12,r24     : IntAlu :  D=0x000000000000005c
24166000: system.cpu T0 : 0x12001e380    : lda        r24,-1(r24)     : IntAlu :  D=0x000000000000005b
24166000: system.cpu T0 : 0x12001e384    : bis        r31,r12,r25     : IntAlu :  D=0x0000000000000008
24166000: system.cpu T0 : 0x12001e388    : nop        (ldq_u      r31,0(r30)) : No_OpClass : 
24166000: system.cpu T0 : 0x12001e38c    : bsr        r23,__divqu     : IntAlu :  D=0x000000012001e390
24167000: system.cpu T0 : 0x1200318b0    : lda        r30,-64(r30)    : IntAlu :  D=0x000000011ff91c80
24167000: system.cpu T0 : 0x1200318b4    : stt        f0,0(r30)       : MemWrite :  D=0x0000000000000000 A=0x11ff91c80
24170000: system.cpu T0 : 0x1200318b8    : excb                       : No_OpClass : 
24170000: system.cpu T0 : 0x1200318bc    : beq        r25,0x120031a40 : IntAlu : 
24176000: system.cpu T0 : 0x1200318c0    : stt        f1,8(r30)       : MemWrite :  D=0x0000000000000000 A=0x11ff91c88
24176000: system.cpu T0 : 0x1200318c4    : stt        f3,48(r30)      : MemWrite :  D=0x0000000000000000 A=0x11ff91cb0
24179000: system.cpu T0 : 0x1200318c8    : mf_fpcr    f106,f3         : FloatAdd :  D=0x0000000000000000
24179000: system.cpu T0 : 0x1200318cc    : itoft      r24,f0          : FloatCvt :  D=0x000000000000005b
24179000: system.cpu T0 : 0x1200318d0    : itoft      r25,f1          : FloatCvt :  D=0x0000000000000008
24180000: system.cpu T0 : 0x1200318d4    : cvtqt      f0,f0           : FloatAdd :  D=0x4056c00000000000
24180000: system.cpu T0 : 0x1200318d8    : cvtqt      f1,f1           : FloatAdd :  D=0x4020000000000000
24180000: system.cpu T0 : 0x1200318dc    : blt        r24,0x120031920 : IntAlu : 
24181000: system.cpu T0 : 0x1200318e0    : divt/c     f0,f1,f0        : FloatDiv :  D=0x4026c00000000000
24610000: system.cpu T0 : 0x1200318e4    : ldt        f1,8(r30)       : MemRead :  D=0x0000000000000000 A=0x11ff91c88
24610000: system.cpu T0 : 0x1200318e8    : blt        r25,0x120031a20 : IntAlu : 
24610000: system.cpu T0 : 0x1200318ec    : srl        r24,53,r28      : IntAlu :  D=0x0000000000000000
24610000: system.cpu T0 : 0x1200318f0    : bne        r28,0x120031950 : IntAlu : 
24611000: system.cpu T0 : 0x1200318f4    : cvttq/c    f0,f0           : FloatAdd :  D=0x000000000000000b
24614000: system.cpu T0 : 0x1200318f8    : excb                       : No_OpClass : 
24617000: system.cpu T0 : 0x1200318fc    : mt_fpcr    f3,f106         : FloatAdd :  D=0x0000000000000000
24617000: system.cpu T0 : 0x120031900    : ftoit      f0,r27          : FloatCvt :  D=0x000000000000000b
24618000: system.cpu T0 : 0x120031904    : ldt        f0,0(r30)       : MemRead :  D=0x0000000000000000 A=0x11ff91c80
24619000: system.cpu T0 : 0x120031908    : ldt        f3,48(r30)      : MemRead :  D=0x0000000000000000 A=0x11ff91cb0
24619000: system.cpu T0 : 0x12003190c    : lda        r30,64(r30)     : IntAlu :  D=0x000000011ff91cc0
24619000: system.cpu T0 : 0x120031910    : ret        (r23)           : IntAlu : 
24620000: system.cpu T0 : 0x12001e390    : bis        r31,r27,r15     : IntAlu :  D=0x000000000000000b
24621000: system.cpu T0 : 0x12001e394    : mulq       r15,r12,r2      : IntMult :  D=0x0000000000000058
24623000: system.cpu T0 : 0x12001e398    : addq       r2,r13,r2       : IntAlu :  D=0x0000000000000068
24623000: system.cpu T0 : 0x12001e39c    : ldah       r3,0(r29)       : IntAlu :  D=0x00000001200c8828
25054000: system.cpu T0 : 0x12001e3a0    : ldq        r1,-30120(r3)   : MemRead :  D=0x0000000000000800 A=0x1200c1280
25056000: system.cpu T0 : 0x12001e3a4    : lda        r1,15(r1)       : IntAlu :  D=0x000000000000080f
25057000: system.cpu T0 : 0x12001e3a8    : addq       r1,r2,r1        : IntAlu :  D=0x0000000000000877
25058000: system.cpu T0 : 0x12001e3ac    : bic        r1,15,r1        : IntAlu :  D=0x0000000000000870
25059000: system.cpu T0 : 0x12001e3b0    : stq        r1,-30120(r3)   : MemWrite :  D=0x0000000000000870 A=0x1200c1280
25483000: system.cpu T0 : 0x12001e3b4    : ldq        r1,-32280(r29)  : MemRead :  D=0x00000001200c1998 A=0x1200c0a10
25484000: system.cpu T0 : 0x12001e3b8    : stq        r2,0(r1)        : MemWrite :  D=0x0000000000000068 A=0x1200c1998
25484000: system.cpu T0 : 0x12001e3bc    : cmpule     r14,16,r1       : IntAlu :  D=0x0000000000000001
25484000: system.cpu T0 : 0x12001e3c0    : lda        r2,16(r31)      : IntAlu :  D=0x0000000000000010
25484000: system.cpu T0 : 0x12001e3c4    : cmoveq     r1,r14,r2       : IntAlu :  D=0x0000000000000010
25916000: system.cpu T0 : 0x12001e3c8    : ldq        r1,-31888(r29)  : MemRead :  D=0x00000001200c19a0 A=0x1200c0b98
25917000: system.cpu T0 : 0x12001e3cc    : stq        r2,0(r1)        : MemWrite :  D=0x0000000000000010 A=0x1200c19a0
25921000: system.cpu T0 : 0x12001e3d0    : ldq        r1,-31864(r29)  : MemRead :  D=0x00000001200c19a8 A=0x1200c0bb0
25924000: system.cpu T0 : 0x12001e3d4    : ldq        r2,0(r1)        : MemRead :  D=0x0000000000000001 A=0x1200c19a8
26346000: system.cpu T0 : 0x12001e3d8    : ldq        r1,-30744(r29)  : MemRead :  D=0x00000001200c19c8 A=0x1200c1010
26347000: system.cpu T0 : 0x12001e3dc    : stq        r2,0(r1)        : MemWrite :  D=0x0000000000000001 A=0x1200c19c8
26784000: system.cpu T0 : 0x12001e3e0    : ldq        r26,0(r30)      : MemRead :  D=0x000000012001e444 A=0x11ff91cc0
26791000: system.cpu T0 : 0x12001e3e4    : ldq        r9,8(r30)       : MemRead :  D=0x0000000000000000 A=0x11ff91cc8
26792000: system.cpu T0 : 0x12001e3e8    : ldq        r10,16(r30)     : MemRead :  D=0x0000000000000000 A=0x11ff91cd0
26792000: system.cpu T0 : 0x12001e3ec    : ldq        r11,24(r30)     : MemRead :  D=0x0000000000000000 A=0x11ff91cd8
26792000: system.cpu T0 : 0x12001e3f0    : ldq        r12,32(r30)     : MemRead :  D=0x000000012001e450 A=0x11ff91ce0
26792000: system.cpu T0 : 0x12001e3f4    : ldq        r13,40(r30)     : MemRead :  D=0x000000012001e4c0 A=0x11ff91ce8
26793000: system.cpu T0 : 0x12001e3f8    : ldq        r14,48(r30)     : MemRead :  D=0x0000000000000000 A=0x11ff91cf0
26794000: system.cpu T0 : 0x12001e3fc    : ldq        r15,56(r30)     : MemRead :  D=0x0000000000000000 A=0x11ff91cf8
26794000: system.cpu T0 : 0x12001e400    : lda        r30,80(r30)     : IntAlu :  D=0x000000011ff91d10
26794000: system.cpu T0 : 0x12001e404    : ret        (r26)           : IntAlu : 
26809000: system.cpu T0 : 0x12001e444    : ldq        r26,0(r30)      : MemRead :  D=0x000000012001de64 A=0x11ff91d10
26809000: system.cpu T0 : 0x12001e448    : lda        r30,16(r30)     : IntAlu :  D=0x000000011ff91d20
26811000: system.cpu T0 : 0x12001e44c    : ret        (r26)           : IntAlu : 
27221000: system.cpu T0 : 0x12001de64    : nop        (ldq_u      r31,0(r30)) : No_OpClass : 
27221000: system.cpu T0 : 0x12001de68    : nop        (ldq_u      r31,0(r30)) : No_OpClass : 
27221000: system.cpu T0 : 0x12001de6c    : stq        r31,224(r30)    : MemWrite :  D=0x0000000000000000 A=0x11ff91e00
27221000: system.cpu T0 : 0x12001de70    : lda        r2,224(r30)     : IntAlu :  D=0x000000011ff91e00
27222000: system.cpu T0 : 0x12001de74    : lda        r1,-1(r31)      : IntAlu :  D=0xffffffffffffffff
27223000: system.cpu T0 : 0x12001de78    : stb        r1,7(r2)        : MemWrite :  D=0x00000000000000ff A=0x11ff91e07
27223000: system.cpu T0 : 0x12001de7c    : lda        r1,10(r31)      : IntAlu :  D=0x000000000000000a
27645000: system.cpu T0 : 0x12001de80    : stb        r1,6(r2)        : MemWrite :  D=0x000000000000000a A=0x11ff91e06
27652000: system.cpu T0 : 0x12001de84    : ldq        r2,224(r30)     : MemRead :  D=0xff0a000000000000 A=0x11ff91e00
27652000: system.cpu T0 : 0x12001de88    : ldah       r1,-1(r29)      : IntAlu :  D=0x00000001200b8828
27654000: system.cpu T0 : 0x12001de8c    : stq        r2,22624(r1)    : MemWrite :  D=0xff0a000000000000 A=0x1200be088
27654000: system.cpu T0 : 0x12001de90    : beq        r11,0x12001deb0 : IntAlu : 
28095000: system.cpu T0 : 0x12001deb0    : ldq        r16,696(r30)    : MemRead :  D=0x0000000000000002 A=0x11ff91fd8
28102000: system.cpu T0 : 0x12001deb4    : ldq        r17,704(r30)    : MemRead :  D=0x000000011ff92008 A=0x11ff91fe0
28102000: system.cpu T0 : 0x12001deb8    : lda        r1,-29608(r29)  : IntAlu :  D=0x00000001200c1480
28104000: system.cpu T0 : 0x12001debc    : ldq        r18,0(r1)       : MemRead :  D=0x000000011ff92020 A=0x1200c1480
28104000: system.cpu T0 : 0x12001dec0    : nop        (ldq_u      r31,0(r30)) : No_OpClass : 
28104000: system.cpu T0 : 0x12001dec4    : bsr        r26,0x120034188 : IntAlu :  D=0x000000012001dec8
28536000: system.cpu T0 : 0x120034188    : lda        r30,-32(r30)    : IntAlu :  D=0x000000011ff91d00
28536000: system.cpu T0 : 0x12003418c    : stq        r26,0(r30)      : MemWrite :  D=0x000000012001dec8 A=0x11ff91d00
28536000: system.cpu T0 : 0x120034190    : stq        r9,8(r30)       : MemWrite :  D=0x0000000000000000 A=0x11ff91d08
28536000: system.cpu T0 : 0x120034194    : stq        r10,16(r30)     : MemWrite :  D=0x0000000000000000 A=0x11ff91d10
28537000: system.cpu T0 : 0x120034198    : stq        r11,24(r30)     : MemWrite :  D=0x0000000000000000 A=0x11ff91d18
28537000: system.cpu T0 : 0x12003419c    : bis        r31,r16,r9      : IntAlu :  D=0x0000000000000002
28537000: system.cpu T0 : 0x1200341a0    : bis        r31,r17,r10     : IntAlu :  D=0x000000011ff92008
28537000: system.cpu T0 : 0x1200341a4    : bis        r31,r18,r11     : IntAlu :  D=0x000000011ff92020
28538000: system.cpu T0 : 0x1200341a8    : lda        r1,0(r31)       : IntAlu :  D=0x0000000000000000
28539000: system.cpu T0 : 0x1200341ac    : beq        r1,0x120034230  : IntAlu : 
28971000: system.cpu T0 : 0x120034230    : ldah       r1,0(r29)       : IntAlu :  D=0x00000001200c8828
28971000: system.cpu T0 : 0x120034234    : stl        r31,-29944(r1)  : MemWrite :  D=0x0000000000000000 A=0x1200c1330
28971000: system.cpu T0 : 0x120034238    : lda        r1,-29888(r29)  : IntAlu :  D=0x00000001200c1368
29403000: system.cpu T0 : 0x12003423c    : ldl        r16,0(r1)       : MemRead :  D=0x000000000000137f A=0x1200c1368
29403000: system.cpu T0 : 0x120034240    : nop        (ldq_u      r31,0(r30)) : No_OpClass : 
29403000: system.cpu T0 : 0x120034244    : bsr        r26,0x1200450b0 : IntAlu :  D=0x0000000120034248
29835000: system.cpu T0 : 0x1200450b0    : lda        r30,-16(r30)    : IntAlu :  D=0x000000011ff91cf0
29835000: system.cpu T0 : 0x1200450b4    : stq        r26,0(r30)      : MemWrite :  D=0x0000000120034248 A=0x11ff91cf0
29835000: system.cpu T0 : 0x1200450b8    : stq        r9,8(r30)       : MemWrite :  D=0x0000000000000002 A=0x11ff91cf8
29835000: system.cpu T0 : 0x1200450bc    : bis        r31,r16,r9      : IntAlu :  D=0x000000000000137f
29844000: system.cpu T0 : 0x1200450c0    : beq        r16,0x1200451b8 : IntAlu : 
29847000: system.cpu T0 : 0x1200450c4    : excb                       : No_OpClass : 
29850000: system.cpu T0 : 0x1200450c8    : mf_fpcr    f106,f10        : FloatAdd :  D=0x0000000000000000
29851000: system.cpu T0 : 0x1200450cc    : ftoit      f10,r2          : FloatCvt :  D=0x0000000000000000
29851000: system.cpu T0 : 0x1200450d0    : lda        r1,-3(r31)      : IntAlu :  D=0xfffffffffffffffd
29852000: system.cpu T0 : 0x1200450d4    : sll        r1,58,r1        : IntAlu :  D=0xf400000000000000
29853000: system.cpu T0 : 0x1200450d8    : lda        r1,-1(r1)       : IntAlu :  D=0xf3ffffffffffffff
29854000: system.cpu T0 : 0x1200450dc    : and        r2,r1,r2        : IntAlu :  D=0x0000000000000000
29854000: system.cpu T0 : 0x1200450e0    : lda        r1,3072(r31)    : IntAlu :  D=0x0000000000000c00
29855000: system.cpu T0 : 0x1200450e4    : and        r16,r1,r3       : IntAlu :  D=0x0000000000000000
29856000: system.cpu T0 : 0x1200450e8    : lda        r1,-1024(r3)    : IntAlu :  D=0xfffffffffffffc00
29857000: system.cpu T0 : 0x1200450ec    : beq        r1,0x12004510c  : IntAlu : 
29857000: system.cpu T0 : 0x1200450f0    : lda        r1,-2048(r3)    : IntAlu :  D=0xfffffffffffff800
29858000: system.cpu T0 : 0x1200450f4    : beq        r1,0x12004511c  : IntAlu : 
29859000: system.cpu T0 : 0x1200450f8    : bne        r3,0x120045128  : IntAlu : 
29859000: system.cpu T0 : 0x1200450fc    : lda        r1,1(r31)       : IntAlu :  D=0x0000000000000001
30279000: system.cpu T0 : 0x120045100    : sll        r1,59,r1        : IntAlu :  D=0x0800000000000000
30280000: system.cpu T0 : 0x120045104    : bis        r2,r1,r2        : IntAlu :  D=0x0800000000000000
30280000: system.cpu T0 : 0x120045108    : br         0x120045128     : IntAlu : 
30283000: system.cpu T0 : 0x120045128    : itoft      r2,f10          : FloatCvt :  D=0x0800000000000000
30286000: system.cpu T0 : 0x12004512c    : mt_fpcr    f10,f106        : FloatAdd :  D=0x0800000000000000
30289000: system.cpu T0 : 0x120045130    : excb                       : No_OpClass : 
30289000: system.cpu T0 : 0x120045134    : nop        (ldq_u      r31,0(r30)) : No_OpClass : 
30289000: system.cpu T0 : 0x120045138    : bsr        r26,0x120062bf8 : IntAlu :  D=0x000000012004513c
30717000: system.cpu T0 : 0x120062bf8    : lda        r30,-16(r30)    : IntAlu :  D=0x000000011ff91ce0
30718000: system.cpu T0 : 0x120062bfc    : bis        r31,r30,r17     : IntAlu :  D=0x000000011ff91ce0
30726000: system.cpu T0 : 0x120062c00    : lda        r16,45(r31)     : IntAlu :  D=0x000000000000002d
30726000: system.cpu T0 : 0x120062c04    : lda        r0,256(r31)     : IntAlu :  D=0x0000000000000100
30727000: system.cpu T0 : 0x120062c08    : call_pal   callsys         : IntAlu : 
30733000: system.cpu T0 : 0x120062c0c    : bne        r19,0x120062c1c : IntAlu : 
30734000: system.cpu T0 : 0x120062c10    : ldq        r0,0(r30)       : MemRead :  D=0x0000000000000000 A=0x11ff91ce0
30734000: system.cpu T0 : 0x120062c14    : lda        r30,16(r30)     : IntAlu :  D=0x000000011ff91cf0
30734000: system.cpu T0 : 0x120062c18    : ret        (r26)           : IntAlu : 
30736000: system.cpu T0 : 0x12004513c    : nop        (ldq_u      r31,0(r30)) : No_OpClass : 
30737000: system.cpu T0 : 0x120045140    : nop        (ldq_u      r31,0(r30)) : No_OpClass : 
30737000: system.cpu T0 : 0x120045144    : bic        r0,126,r0       : IntAlu :  D=0x0000000000000000
30738000: system.cpu T0 : 0x120045148    : bis        r0,2,r1         : IntAlu :  D=0x0000000000000002
30739000: system.cpu T0 : 0x12004514c    : cmovlbc    r9,r1,r0        : IntAlu :  D=0x0000000000000000
30739000: system.cpu T0 : 0x120045150    : and        r9,2,r1         : IntAlu :  D=0x0000000000000002
30740000: system.cpu T0 : 0x120045154    : zapnot     r1,15,r1        : IntAlu :  D=0x0000000000000002
30740000: system.cpu T0 : 0x120045158    : bis        r0,16,r2        : IntAlu :  D=0x0000000000000010
30741000: system.cpu T0 : 0x12004515c    : cmoveq     r1,r2,r0        : IntAlu :  D=0x0000000000000000
30741000: system.cpu T0 : 0x120045160    : and        r9,4,r1         : IntAlu :  D=0x0000000000000004
30742000: system.cpu T0 : 0x120045164    : zapnot     r1,15,r1        : IntAlu :  D=0x0000000000000004
30742000: system.cpu T0 : 0x120045168    : bis        r0,4,r2         : IntAlu :  D=0x0000000000000004
30743000: system.cpu T0 : 0x12004516c    : cmoveq     r1,r2,r0        : IntAlu :  D=0x0000000000000000
30743000: system.cpu T0 : 0x120045170    : and        r9,8,r1         : IntAlu :  D=0x0000000000000008
30744000: system.cpu T0 : 0x120045174    : zapnot     r1,15,r1        : IntAlu :  D=0x0000000000000008
30744000: system.cpu T0 : 0x120045178    : bis        r0,8,r2         : IntAlu :  D=0x0000000000000008
30745000: system.cpu T0 : 0x12004517c    : cmoveq     r1,r2,r0        : IntAlu :  D=0x0000000000000000
31166000: system.cpu T0 : 0x120045180    : and        r9,32,r2        : IntAlu :  D=0x0000000000000020
31167000: system.cpu T0 : 0x120045184    : zapnot     r2,15,r2        : IntAlu :  D=0x0000000000000020
31167000: system.cpu T0 : 0x120045188    : bis        r0,32,r16       : IntAlu :  D=0x0000000000000020
31167000: system.cpu T0 : 0x12004518c    : lda        r1,-29888(r29)  : IntAlu :  D=0x00000001200c1368
31167000: system.cpu T0 : 0x120045190    : stl        r9,0(r1)        : MemWrite :  D=0x000000000000137f A=0x1200c1368
31168000: system.cpu T0 : 0x120045194    : cmovne     r2,r0,r16       : IntAlu :  D=0x0000000000000000
31168000: system.cpu T0 : 0x120045198    : nop        (ldq_u      r31,0(r30)) : No_OpClass : 
31168000: system.cpu T0 : 0x12004519c    : bsr        r26,0x120062c38 : IntAlu :  D=0x00000001200451a0
31170000: system.cpu T0 : 0x120062c38    : lda        r30,-16(r30)    : IntAlu :  D=0x000000011ff91ce0
31170000: system.cpu T0 : 0x120062c3c    : stq        r16,0(r30)      : MemWrite :  D=0x0000000000000000 A=0x11ff91ce0
31593000: system.cpu T0 : 0x120062c40    : bis        r31,r30,r17     : IntAlu :  D=0x000000011ff91ce0
31593000: system.cpu T0 : 0x120062c44    : lda        r16,14(r31)     : IntAlu :  D=0x000000000000000e
31593000: system.cpu T0 : 0x120062c48    : lda        r0,257(r31)     : IntAlu :  D=0x0000000000000101
31594000: system.cpu T0 : 0x120062c4c    : call_pal   callsys         : IntAlu : 
31600000: system.cpu T0 : 0x120062c50    : bne        r19,0x120062c5c : IntAlu : 
31600000: system.cpu T0 : 0x120062c54    : lda        r30,16(r30)     : IntAlu :  D=0x000000011ff91cf0
31601000: system.cpu T0 : 0x120062c58    : ret        (r26)           : IntAlu : 
31603000: system.cpu T0 : 0x1200451a0    : nop        (ldq_u      r31,0(r30)) : No_OpClass : 
31603000: system.cpu T0 : 0x1200451a4    : nop        (ldq_u      r31,0(r30)) : No_OpClass : 
31604000: system.cpu T0 : 0x1200451a8    : ldq        r26,0(r30)      : MemRead :  D=0x0000000120034248 A=0x11ff91cf0
31605000: system.cpu T0 : 0x1200451ac    : ldq        r9,8(r30)       : MemRead :  D=0x0000000000000002 A=0x11ff91cf8
31605000: system.cpu T0 : 0x1200451b0    : lda        r30,16(r30)     : IntAlu :  D=0x000000011ff91d00
31606000: system.cpu T0 : 0x1200451b4    : ret        (r26)           : IntAlu : 
32036000: system.cpu T0 : 0x120034248    : nop        (ldq_u      r31,0(r30)) : No_OpClass : 
32036000: system.cpu T0 : 0x12003424c    : nop        (ldq_u      r31,0(r30)) : No_OpClass : 
32036000: system.cpu T0 : 0x120034250    : br         0x1200341c4     : IntAlu : 
32484000: system.cpu T0 : 0x1200341c4    : ldq        r1,-32752(r29)  : MemRead :  D=0x00000001200c1aa0 A=0x1200c0838
32485000: system.cpu T0 : 0x1200341c8    : stl        r9,0(r1)        : MemWrite :  D=0x0000000000000002 A=0x1200c1aa0
32922000: system.cpu T0 : 0x1200341cc    : ldq        r1,-30360(r29)  : MemRead :  D=0x00000001200c1aa8 A=0x1200c1190
32923000: system.cpu T0 : 0x1200341d0    : stq        r10,0(r1)       : MemWrite :  D=0x000000011ff92008 A=0x1200c1aa8
32923000: system.cpu T0 : 0x1200341d4    : lda        r1,-29608(r29)  : IntAlu :  D=0x00000001200c1480
32923000: system.cpu T0 : 0x1200341d8    : stq        r11,0(r1)       : MemWrite :  D=0x000000011ff92020 A=0x1200c1480
32923000: system.cpu T0 : 0x1200341dc    : nop        (ldq_u      r31,0(r30)) : No_OpClass : 
32924000: system.cpu T0 : 0x1200341e0    : bsr        r26,0x1200340c4 : IntAlu :  D=0x00000001200341e4
32924000: system.cpu T0 : 0x1200340c4    : lda        r30,-16(r30)    : IntAlu :  D=0x000000011ff91cf0
32924000: system.cpu T0 : 0x1200340c8    : stq        r26,0(r30)      : MemWrite :  D=0x00000001200341e4 A=0x11ff91cf0
32924000: system.cpu T0 : 0x1200340cc    : stq        r9,8(r30)       : MemWrite :  D=0x0000000000000002 A=0x11ff91cf8
33364000: system.cpu T0 : 0x1200340d0    : ldq        r1,-31680(r29)  : MemRead :  D=0x00000001200c1a98 A=0x1200c0c68
33367000: system.cpu T0 : 0x1200340d4    : ldl        r1,0(r1)        : MemRead :  D=0x0000000000000001 A=0x1200c1a98
33369000: system.cpu T0 : 0x1200340d8    : bne        r1,0x120034154  : IntAlu : 
33796000: system.cpu T0 : 0x120034154    : ldq        r26,0(r30)      : MemRead :  D=0x00000001200341e4 A=0x11ff91cf0
33797000: system.cpu T0 : 0x120034158    : ldq        r9,8(r30)       : MemRead :  D=0x0000000000000002 A=0x11ff91cf8
33797000: system.cpu T0 : 0x12003415c    : lda        r30,16(r30)     : IntAlu :  D=0x000000011ff91d00
33798000: system.cpu T0 : 0x120034160    : ret        (r26)           : IntAlu : 
33798000: system.cpu T0 : 0x1200341e4    : nop        (ldq_u      r31,0(r30)) : No_OpClass : 
33798000: system.cpu T0 : 0x1200341e8    : nop        (ldq_u      r31,0(r30)) : No_OpClass : 
33798000: system.cpu T0 : 0x1200341ec    : nop        (ldq_u      r31,0(r30)) : No_OpClass : 
33799000: system.cpu T0 : 0x1200341f0    : bsr        r26,0x120033950 : IntAlu :  D=0x00000001200341f4
34222000: system.cpu T0 : 0x120033950    : lda        r30,-64(r30)    : IntAlu :  D=0x000000011ff91cc0
34222000: system.cpu T0 : 0x120033954    : stq        r26,0(r30)      : MemWrite :  D=0x00000001200341f4 A=0x11ff91cc0
34222000: system.cpu T0 : 0x120033958    : stq        r9,8(r30)       : MemWrite :  D=0x0000000000000002 A=0x11ff91cc8
34222000: system.cpu T0 : 0x12003395c    : stq        r10,16(r30)     : MemWrite :  D=0x000000011ff92008 A=0x11ff91cd0
34223000: system.cpu T0 : 0x120033960    : stq        r11,24(r30)     : MemWrite :  D=0x000000011ff92020 A=0x11ff91cd8
34223000: system.cpu T0 : 0x120033964    : stq        r12,32(r30)     : MemWrite :  D=0x000000012001e450 A=0x11ff91ce0
34223000: system.cpu T0 : 0x120033968    : rpcc       r31,r1          : IntAlu :  D=0x00000000020a2bc8
34224000: system.cpu T0 : 0x12003396c    : srl        r1,32,r2        : IntAlu :  D=0x0000000000000000
34225000: system.cpu T0 : 0x120033970    : subq       r1,r2,r1        : IntAlu :  D=0x00000000020a2bc8
34653000: system.cpu T0 : 0x120033974    : ldq        r2,-31976(r29)  : MemRead :  D=0x00000001200c1a10 A=0x1200c0b40
34654000: system.cpu T0 : 0x120033978    : stl        r1,0(r2)        : MemWrite :  D=0x00000000020a2bc8 A=0x1200c1a10
35096000: system.cpu T0 : 0x12003397c    : ldq        r1,-30216(r29)  : MemRead :  D=0x00000001200c1a90 A=0x1200c1220
35099000: system.cpu T0 : 0x120033980    : ldq        r1,0(r1)        : MemRead :  D=0x0000000000002000 A=0x1200c1a90
35101000: system.cpu T0 : 0x120033984    : bne        r1,0x1200339a0  : IntAlu : 
35104000: system.cpu T0 : 0x1200339a0    : ldah       r16,-3(r29)     : IntAlu :  D=0x0000000120098828
35105000: system.cpu T0 : 0x1200339a4    : lda        r16,-25540(r16) : IntAlu :  D=0x0000000120092464
35105000: system.cpu T0 : 0x1200339a8    : nop        (ldq_u      r31,0(r30)) : No_OpClass : 
[...]
184575000: system.cpu T0 : 0x120002a5c    : cmple      r2,r3,r1        : IntAlu :  D=0x0000000000000000
184575000: system.cpu T0 : 0x120002a60    : addq       r2,r3,r4        : IntAlu :  D=0x0000000000000003
184576000: system.cpu T0 : 0x120002a64    : cmoveq     r1,r2,r3        : IntAlu :  D=0x0000000000000003
184576000: system.cpu T0 : 0x120002a68    : stl        r4,0(r5)        : MemWrite :  D=0x0000000000000003 A=0x1200f6308
184577000: system.cpu T0 : 0x120002a6c    : stl        r3,0(r6)        : MemWrite :  D=0x0000000000000003 A=0x1200e1f08
184577000: system.cpu T0 : 0x120002a70    : beq        r7,0x120002a10  : IntAlu : 
184580000: system.cpu T0 : 0x120002a10    : addl       r31,r8,r1       : IntAlu :  D=0x0000000000000019
184581000: system.cpu T0 : 0x120002a14    : ldl        r5,0(r22)       : MemRead :  D=0x000000000000003f A=0x12008e418
184581000: system.cpu T0 : 0x120002a18    : lda        r8,1(r8)        : IntAlu :  D=0x000000000000001a
184581000: system.cpu T0 : 0x120002a1c    : lda        r22,4(r22)      : IntAlu :  D=0x000000012008e41c
184581000: system.cpu T0 : 0x120002a20    : sra        r1,3,r4         : IntAlu :  D=0x0000000000000003
184582000: system.cpu T0 : 0x120002a24    : and        r1,7,r1         : IntAlu :  D=0x0000000000000001
184582000: system.cpu T0 : 0x120002a28    : cmpeq      r8,64,r7        : IntAlu :  D=0x0000000000000000
184582000: system.cpu T0 : 0x120002a2c    : subq       r24,r1,r1       : IntAlu :  D=0xffffffffffffffff
184582000: system.cpu T0 : 0x120002a30    : subl       r25,r4,r4       : IntAlu :  D=0x00000000fffffffd
184583000: system.cpu T0 : 0x120002a34    : subq       r31,r1,r3       : IntAlu :  D=0x0000000000000001
184583000: system.cpu T0 : 0x120002a38    : subq       r31,r4,r2       : IntAlu :  D=0x0000000000000003
184583000: system.cpu T0 : 0x120002a3c    : addq       r23,r5,r5       : IntAlu :  D=0x0000000000000edf
184584000: system.cpu T0 : 0x120002a40    : cmovge     r1,r1,r3        : IntAlu :  D=0x0000000000000001
184584000: system.cpu T0 : 0x120002a44    : cmovge     r4,r4,r2        : IntAlu :  D=0x0000000000000003
184584000: system.cpu T0 : 0x120002a48    : s4addq     r5,0,r5         : IntAlu :  D=0x0000000000003b7c
184585000: system.cpu T0 : 0x120002a4c    : addq       r28,r5,r6       : IntAlu :  D=0x00000001200e1f0c
184585000: system.cpu T0 : 0x120002a50    : addq       r0,r5,r5        : IntAlu :  D=0x00000001200f630c
184585000: system.cpu T0 : 0x120002a54    : addl       r31,r3,r3       : IntAlu :  D=0x0000000000000001
184585000: system.cpu T0 : 0x120002a58    : addl       r31,r2,r2       : IntAlu :  D=0x0000000000000003
184586000: system.cpu T0 : 0x120002a5c    : cmple      r2,r3,r1        : IntAlu :  D=0x0000000000000000
184586000: system.cpu T0 : 0x120002a60    : addq       r2,r3,r4        : IntAlu :  D=0x0000000000000004
184587000: system.cpu T0 : 0x120002a64    : cmoveq     r1,r2,r3        : IntAlu :  D=0x0000000000000003
184587000: system.cpu T0 : 0x120002a68    : stl        r4,0(r5)        : MemWrite :  D=0x0000000000000004 A=0x1200f630c
184588000: system.cpu T0 : 0x120002a6c    : stl        r3,0(r6)        : MemWrite :  D=0x0000000000000003 A=0x1200e1f0c
184588000: system.cpu T0 : 0x120002a70    : beq        r7,0x120002a10  : IntAlu : 
184591000: system.cpu T0 : 0x120002a10    : addl       r31,r8,r1       : IntAlu :  D=0x000000000000001a
184592000: system.cpu T0 : 0x120002a14    : ldl        r5,0(r22)       : MemRead :  D=0x0000000000000040 A=0x12008e41c
184592000: system.cpu T0 : 0x120002a18    : lda        r8,1(r8)        : IntAlu :  D=0x000000000000001b
184592000: system.cpu T0 : 0x120002a1c    : lda        r22,4(r22)      : IntAlu :  D=0x000000012008e420
184592000: system.cpu T0 : 0x120002a20    : sra        r1,3,r4         : IntAlu :  D=0x0000000000000003
184593000: system.cpu T0 : 0x120002a24    : and        r1,7,r1         : IntAlu :  D=0x0000000000000002
184593000: system.cpu T0 : 0x120002a28    : cmpeq      r8,64,r7        : IntAlu :  D=0x0000000000000000
184593000: system.cpu T0 : 0x120002a2c    : subq       r24,r1,r1       : IntAlu :  D=0xfffffffffffffffe
184593000: system.cpu T0 : 0x120002a30    : subl       r25,r4,r4       : IntAlu :  D=0x00000000fffffffd
184594000: system.cpu T0 : 0x120002a34    : subq       r31,r1,r3       : IntAlu :  D=0x0000000000000002
184594000: system.cpu T0 : 0x120002a38    : subq       r31,r4,r2       : IntAlu :  D=0x0000000000000003
184594000: system.cpu T0 : 0x120002a3c    : addq       r23,r5,r5       : IntAlu :  D=0x0000000000000ee0
184595000: system.cpu T0 : 0x120002a40    : cmovge     r1,r1,r3        : IntAlu :  D=0x0000000000000002
184595000: system.cpu T0 : 0x120002a44    : cmovge     r4,r4,r2        : IntAlu :  D=0x0000000000000003
184595000: system.cpu T0 : 0x120002a48    : s4addq     r5,0,r5         : IntAlu :  D=0x0000000000003b80
184596000: system.cpu T0 : 0x120002a4c    : addq       r28,r5,r6       : IntAlu :  D=0x00000001200e1f10
184596000: system.cpu T0 : 0x120002a50    : addq       r0,r5,r5        : IntAlu :  D=0x00000001200f6310
184596000: system.cpu T0 : 0x120002a54    : addl       r31,r3,r3       : IntAlu :  D=0x0000000000000002
184596000: system.cpu T0 : 0x120002a58    : addl       r31,r2,r2       : IntAlu :  D=0x0000000000000003
184597000: system.cpu T0 : 0x120002a5c    : cmple      r2,r3,r1        : IntAlu :  D=0x0000000000000000
184597000: system.cpu T0 : 0x120002a60    : addq       r2,r3,r4        : IntAlu :  D=0x0000000000000005
184598000: system.cpu T0 : 0x120002a64    : cmoveq     r1,r2,r3        : IntAlu :  D=0x0000000000000003
184598000: system.cpu T0 : 0x120002a68    : stl        r4,0(r5)        : MemWrite :  D=0x0000000000000005 A=0x1200f6310
184599000: system.cpu T0 : 0x120002a6c    : stl        r3,0(r6)        : MemWrite :  D=0x0000000000000003 A=0x1200e1f10
184599000: system.cpu T0 : 0x120002a70    : beq        r7,0x120002a10  : IntAlu : 
184602000: system.cpu T0 : 0x120002a10    : addl       r31,r8,r1       : IntAlu :  D=0x000000000000001b
184603000: system.cpu T0 : 0x120002a14    : ldl        r5,0(r22)       : MemRead :  D=0x0000000000000041 A=0x12008e420
184603000: system.cpu T0 : 0x120002a18    : lda        r8,1(r8)        : IntAlu :  D=0x000000000000001c
184603000: system.cpu T0 : 0x120002a1c    : lda        r22,4(r22)      : IntAlu :  D=0x000000012008e424
184603000: system.cpu T0 : 0x120002a20    : sra        r1,3,r4         : IntAlu :  D=0x0000000000000003
184604000: system.cpu T0 : 0x120002a24    : and        r1,7,r1         : IntAlu :  D=0x0000000000000003
184604000: system.cpu T0 : 0x120002a28    : cmpeq      r8,64,r7        : IntAlu :  D=0x0000000000000000
184604000: system.cpu T0 : 0x120002a2c    : subq       r24,r1,r1       : IntAlu :  D=0xfffffffffffffffd
184604000: system.cpu T0 : 0x120002a30    : subl       r25,r4,r4       : IntAlu :  D=0x00000000fffffffd
184605000: system.cpu T0 : 0x120002a34    : subq       r31,r1,r3       : IntAlu :  D=0x0000000000000003
184605000: system.cpu T0 : 0x120002a38    : subq       r31,r4,r2       : IntAlu :  D=0x0000000000000003
184605000: system.cpu T0 : 0x120002a3c    : addq       r23,r5,r5       : IntAlu :  D=0x0000000000000ee1
184606000: system.cpu T0 : 0x120002a40    : cmovge     r1,r1,r3        : IntAlu :  D=0x0000000000000003
184606000: system.cpu T0 : 0x120002a44    : cmovge     r4,r4,r2        : IntAlu :  D=0x0000000000000003
184606000: system.cpu T0 : 0x120002a48    : s4addq     r5,0,r5         : IntAlu :  D=0x0000000000003b84
184607000: system.cpu T0 : 0x120002a4c    : addq       r28,r5,r6       : IntAlu :  D=0x00000001200e1f14
184607000: system.cpu T0 : 0x120002a50    : addq       r0,r5,r5        : IntAlu :  D=0x00000001200f6314
184607000: system.cpu T0 : 0x120002a54    : addl       r31,r3,r3       : IntAlu :  D=0x0000000000000003
184607000: system.cpu T0 : 0x120002a58    : addl       r31,r2,r2       : IntAlu :  D=0x0000000000000003
184608000: system.cpu T0 : 0x120002a5c    : cmple      r2,r3,r1        : IntAlu :  D=0x0000000000000001
184608000: system.cpu T0 : 0x120002a60    : addq       r2,r3,r4        : IntAlu :  D=0x0000000000000006
184609000: system.cpu T0 : 0x120002a64    : cmoveq     r1,r2,r3        : IntAlu :  D=0x0000000000000003
184609000: system.cpu T0 : 0x120002a68    : stl        r4,0(r5)        : MemWrite :  D=0x0000000000000006 A=0x1200f6314
184610000: system.cpu T0 : 0x120002a6c    : stl        r3,0(r6)        : MemWrite :  D=0x0000000000000003 A=0x1200e1f14
184610000: system.cpu T0 : 0x120002a70    : beq        r7,0x120002a10  : IntAlu : 
184613000: system.cpu T0 : 0x120002a10    : addl       r31,r8,r1       : IntAlu :  D=0x000000000000001c
184614000: system.cpu T0 : 0x120002a14    : ldl        r5,0(r22)       : MemRead :  D=0x0000000000000042 A=0x12008e424
184614000: system.cpu T0 : 0x120002a18    : lda        r8,1(r8)        : IntAlu :  D=0x000000000000001d
184614000: system.cpu T0 : 0x120002a1c    : lda        r22,4(r22)      : IntAlu :  D=0x000000012008e428
184614000: system.cpu T0 : 0x120002a20    : sra        r1,3,r4         : IntAlu :  D=0x0000000000000003
184615000: system.cpu T0 : 0x120002a24    : and        r1,7,r1         : IntAlu :  D=0x0000000000000004
184615000: system.cpu T0 : 0x120002a28    : cmpeq      r8,64,r7        : IntAlu :  D=0x0000000000000000
184615000: system.cpu T0 : 0x120002a2c    : subq       r24,r1,r1       : IntAlu :  D=0xfffffffffffffffc
184615000: system.cpu T0 : 0x120002a30    : subl       r25,r4,r4       : IntAlu :  D=0x00000000fffffffd
184616000: system.cpu T0 : 0x120002a34    : subq       r31,r1,r3       : IntAlu :  D=0x0000000000000004
184616000: system.cpu T0 : 0x120002a38    : subq       r31,r4,r2       : IntAlu :  D=0x0000000000000003
184616000: system.cpu T0 : 0x120002a3c    : addq       r23,r5,r5       : IntAlu :  D=0x0000000000000ee2
184617000: system.cpu T0 : 0x120002a40    : cmovge     r1,r1,r3        : IntAlu :  D=0x0000000000000004
184617000: system.cpu T0 : 0x120002a44    : cmovge     r4,r4,r2        : IntAlu :  D=0x0000000000000003
184617000: system.cpu T0 : 0x120002a48    : s4addq     r5,0,r5         : IntAlu :  D=0x0000000000003b88
184618000: system.cpu T0 : 0x120002a4c    : addq       r28,r5,r6       : IntAlu :  D=0x00000001200e1f18
184618000: system.cpu T0 : 0x120002a50    : addq       r0,r5,r5        : IntAlu :  D=0x00000001200f6318
184618000: system.cpu T0 : 0x120002a54    : addl       r31,r3,r3       : IntAlu :  D=0x0000000000000004
184618000: system.cpu T0 : 0x120002a58    : addl       r31,r2,r2       : IntAlu :  D=0x0000000000000003
184619000: system.cpu T0 : 0x120002a5c    : cmple      r2,r3,r1        : IntAlu :  D=0x0000000000000001
184619000: system.cpu T0 : 0x120002a60    : addq       r2,r3,r4        : IntAlu :  D=0x0000000000000007
184620000: system.cpu T0 : 0x120002a64    : cmoveq     r1,r2,r3        : IntAlu :  D=0x0000000000000004
184620000: system.cpu T0 : 0x120002a68    : stl        r4,0(r5)        : MemWrite :  D=0x0000000000000007 A=0x1200f6318
184621000: system.cpu T0 : 0x120002a6c    : stl        r3,0(r6)        : MemWrite :  D=0x0000000000000004 A=0x1200e1f18
184621000: system.cpu T0 : 0x120002a70    : beq        r7,0x120002a10  : IntAlu : 
184624000: system.cpu T0 : 0x120002a10    : addl       r31,r8,r1       : IntAlu :  D=0x000000000000001d
184625000: system.cpu T0 : 0x120002a14    : ldl        r5,0(r22)       : MemRead :  D=0x0000000000000043 A=0x12008e428
184625000: system.cpu T0 : 0x120002a18    : lda        r8,1(r8)        : IntAlu :  D=0x000000000000001e
184625000: system.cpu T0 : 0x120002a1c    : lda        r22,4(r22)      : IntAlu :  D=0x000000012008e42c
184625000: system.cpu T0 : 0x120002a20    : sra        r1,3,r4         : IntAlu :  D=0x0000000000000003
184626000: system.cpu T0 : 0x120002a24    : and        r1,7,r1         : IntAlu :  D=0x0000000000000005
184626000: system.cpu T0 : 0x120002a28    : cmpeq      r8,64,r7        : IntAlu :  D=0x0000000000000000
184626000: system.cpu T0 : 0x120002a2c    : subq       r24,r1,r1       : IntAlu :  D=0xfffffffffffffffb
184626000: system.cpu T0 : 0x120002a30    : subl       r25,r4,r4       : IntAlu :  D=0x00000000fffffffd
184627000: system.cpu T0 : 0x120002a34    : subq       r31,r1,r3       : IntAlu :  D=0x0000000000000005
184627000: system.cpu T0 : 0x120002a38    : subq       r31,r4,r2       : IntAlu :  D=0x0000000000000003
184627000: system.cpu T0 : 0x120002a3c    : addq       r23,r5,r5       : IntAlu :  D=0x0000000000000ee3
184628000: system.cpu T0 : 0x120002a40    : cmovge     r1,r1,r3        : IntAlu :  D=0x0000000000000005
184628000: system.cpu T0 : 0x120002a44    : cmovge     r4,r4,r2        : IntAlu :  D=0x0000000000000003
184628000: system.cpu T0 : 0x120002a48    : s4addq     r5,0,r5         : IntAlu :  D=0x0000000000003b8c
184629000: system.cpu T0 : 0x120002a4c    : addq       r28,r5,r6       : IntAlu :  D=0x00000001200e1f1c
184629000: system.cpu T0 : 0x120002a50    : addq       r0,r5,r5        : IntAlu :  D=0x00000001200f631c
184629000: system.cpu T0 : 0x120002a54    : addl       r31,r3,r3       : IntAlu :  D=0x0000000000000005
184629000: system.cpu T0 : 0x120002a58    : addl       r31,r2,r2       : IntAlu :  D=0x0000000000000003
184630000: system.cpu T0 : 0x120002a5c    : cmple      r2,r3,r1        : IntAlu :  D=0x0000000000000001
184630000: system.cpu T0 : 0x120002a60    : addq       r2,r3,r4        : IntAlu :  D=0x0000000000000008
184631000: system.cpu T0 : 0x120002a64    : cmoveq     r1,r2,r3        : IntAlu :  D=0x0000000000000005
184631000: system.cpu T0 : 0x120002a68    : stl        r4,0(r5)        : MemWrite :  D=0x0000000000000008 A=0x1200f631c
184632000: system.cpu T0 : 0x120002a6c    : stl        r3,0(r6)        : MemWrite :  D=0x0000000000000005 A=0x1200e1f1c
184632000: system.cpu T0 : 0x120002a70    : beq        r7,0x120002a10  : IntAlu : 
184635000: system.cpu T0 : 0x120002a10    : addl       r31,r8,r1       : IntAlu :  D=0x000000000000001e
184636000: system.cpu T0 : 0x120002a14    : ldl        r5,0(r22)       : MemRead :  D=0x0000000000000044 A=0x12008e42c
184636000: system.cpu T0 : 0x120002a18    : lda        r8,1(r8)        : IntAlu :  D=0x000000000000001f
184636000: system.cpu T0 : 0x120002a1c    : lda        r22,4(r22)      : IntAlu :  D=0x000000012008e430
184636000: system.cpu T0 : 0x120002a20    : sra        r1,3,r4         : IntAlu :  D=0x0000000000000003
184637000: system.cpu T0 : 0x120002a24    : and        r1,7,r1         : IntAlu :  D=0x0000000000000006
184637000: system.cpu T0 : 0x120002a28    : cmpeq      r8,64,r7        : IntAlu :  D=0x0000000000000000
184637000: system.cpu T0 : 0x120002a2c    : subq       r24,r1,r1       : IntAlu :  D=0xfffffffffffffffa
184637000: system.cpu T0 : 0x120002a30    : subl       r25,r4,r4       : IntAlu :  D=0x00000000fffffffd
184638000: system.cpu T0 : 0x120002a34    : subq       r31,r1,r3       : IntAlu :  D=0x0000000000000006
184638000: system.cpu T0 : 0x120002a38    : subq       r31,r4,r2       : IntAlu :  D=0x0000000000000003
184638000: system.cpu T0 : 0x120002a3c    : addq       r23,r5,r5       : IntAlu :  D=0x0000000000000ee4
184639000: system.cpu T0 : 0x120002a40    : cmovge     r1,r1,r3        : IntAlu :  D=0x0000000000000006
184639000: system.cpu T0 : 0x120002a44    : cmovge     r4,r4,r2        : IntAlu :  D=0x0000000000000003
184639000: system.cpu T0 : 0x120002a48    : s4addq     r5,0,r5         : IntAlu :  D=0x0000000000003b90
184640000: system.cpu T0 : 0x120002a4c    : addq       r28,r5,r6       : IntAlu :  D=0x00000001200e1f20
184640000: system.cpu T0 : 0x120002a50    : addq       r0,r5,r5        : IntAlu :  D=0x00000001200f6320
184640000: system.cpu T0 : 0x120002a54    : addl       r31,r3,r3       : IntAlu :  D=0x0000000000000006
184640000: system.cpu T0 : 0x120002a58    : addl       r31,r2,r2       : IntAlu :  D=0x0000000000000003
184641000: system.cpu T0 : 0x120002a5c    : cmple      r2,r3,r1        : IntAlu :  D=0x0000000000000001
184641000: system.cpu T0 : 0x120002a60    : addq       r2,r3,r4        : IntAlu :  D=0x0000000000000009
184642000: system.cpu T0 : 0x120002a64    : cmoveq     r1,r2,r3        : IntAlu :  D=0x0000000000000006
184642000: system.cpu T0 : 0x120002a68    : stl        r4,0(r5)        : MemWrite :  D=0x0000000000000009 A=0x1200f6320
184643000: system.cpu T0 : 0x120002a6c    : stl        r3,0(r6)        : MemWrite :  D=0x0000000000000006 A=0x1200e1f20
184643000: system.cpu T0 : 0x120002a70    : beq        r7,0x120002a10  : IntAlu : 
184646000: system.cpu T0 : 0x120002a10    : addl       r31,r8,r1       : IntAlu :  D=0x000000000000001f
184647000: system.cpu T0 : 0x120002a14    : ldl        r5,0(r22)       : MemRead :  D=0x0000000000000045 A=0x12008e430
184647000: system.cpu T0 : 0x120002a18    : lda        r8,1(r8)        : IntAlu :  D=0x0000000000000020
184647000: system.cpu T0 : 0x120002a1c    : lda        r22,4(r22)      : IntAlu :  D=0x000000012008e434
184647000: system.cpu T0 : 0x120002a20    : sra        r1,3,r4         : IntAlu :  D=0x0000000000000003
184648000: system.cpu T0 : 0x120002a24    : and        r1,7,r1         : IntAlu :  D=0x0000000000000007
184648000: system.cpu T0 : 0x120002a28    : cmpeq      r8,64,r7        : IntAlu :  D=0x0000000000000000
184648000: system.cpu T0 : 0x120002a2c    : subq       r24,r1,r1       : IntAlu :  D=0xfffffffffffffff9
184648000: system.cpu T0 : 0x120002a30    : subl       r25,r4,r4       : IntAlu :  D=0x00000000fffffffd
184649000: system.cpu T0 : 0x120002a34    : subq       r31,r1,r3       : IntAlu :  D=0x0000000000000007
184649000: system.cpu T0 : 0x120002a38    : subq       r31,r4,r2       : IntAlu :  D=0x0000000000000003
184649000: system.cpu T0 : 0x120002a3c    : addq       r23,r5,r5       : IntAlu :  D=0x0000000000000ee5
hi - end of Simulation.run
Exiting @ tick 184649000 because a thread reached the max instruction count
MZ: sets[0] blks[0] (SCF:0 | SCPtr:-1 | V:1 | T:  2b1 | D:3) - CM(blk[0]:1,blk[1]:ffffffff,)
MZ: sets[0] blks[1] (SCF:0 | SCPtr:-1 | V:1 | T:  b36 | D:0) - CM(blk[0]:0,blk[1]:ffffffff,)
MZ: sets[0] blks[2] (SCF:1 | SCPtr: 0 | V:1 | T:  b32 | D:0) - CM(blk[0]:2,blk[1]:ffffffff,)
MZ: sets[0] blks[3] (SCF:1 | SCPtr: 1 | V:1 | T: 35fa | D:1) - CM(blk[0]:ffffffff,blk[1]:ffffffff,)
MZ: sets[1] blks[0] (SCF:0 | SCPtr:-1 | V:1 | T:  45b | D:ec) - CM(blk[0]:ffffffff,blk[1]:0,)
MZ: sets[1] blks[1] (SCF:0 | SCPtr:-1 | V:1 | T:  33a | D:e6) - CM(blk[0]:ffffffff,blk[1]:1,)
MZ: sets[1] blks[2] (SCF:1 | SCPtr: 0 | V:1 | T:  2de | D:a) - CM(blk[0]:ffffffff,blk[1]:0,)
MZ: sets[1] blks[3] (SCF:1 | SCPtr: 1 | V:1 | T: 35fb | D:34) - CM(blk[0]:ffffffff,blk[1]:2,)
MZ: sets[2] blks[0] (SCF:0 | SCPtr:-1 | V:1 | T:  339 | D:0) - CM(blk[0]:fffffffe,blk[1]:0,)
MZ: sets[2] blks[1] (SCF:0 | SCPtr:-1 | V:1 | T:  b14 | D:20) - CM(blk[0]:fffffffe,blk[1]:0,)
MZ: sets[2] blks[2] (SCF:1 | SCPtr: 0 | V:1 | T:  2de | D:8) - CM(blk[0]:fffffffe,blk[1]:1,)
MZ: sets[2] blks[3] (SCF:1 | SCPtr: 1 | V:0 | T:  d1e | D:0) - CM(blk[0]:fffffffe,blk[1]:2,)
MZ: sets[3] blks[0] (SCF:0 | SCPtr:-1 | V:1 | T:  25c | D:a) - CM(blk[0]:fffffffe,blk[1]:0,)
MZ: sets[3] blks[1] (SCF:0 | SCPtr:-1 | V:1 | T: 35f8 | D:0) - CM(blk[0]:fffffffe,blk[1]:0,)
MZ: sets[3] blks[2] (SCF:1 | SCPtr: 0 | V:1 | T:  497 | D:9) - CM(blk[0]:fffffffe,blk[1]:ffffffff,)
MZ: sets[3] blks[3] (SCF:1 | SCPtr: 1 | V:0 | T:  d1e | D:0) - CM(blk[0]:fffffffe,blk[1]:ffffffff,)
MZ: sets[0] blks[0] (V:1 | T:   2a | D:8)
MZ: sets[0] blks[1] (V:1 | T:  110 | D:0)
MZ: sets[1] blks[0] (V:1 | T:   2a | D:c3)
MZ: sets[1] blks[1] (V:1 | T:  209 | D:1)
MZ: sets[2] blks[0] (V:1 | T:   2a | D:dc)
MZ: sets[2] blks[1] (V:1 | T:   29 | D:8)
MZ: sets[3] blks[0] (V:1 | T:   29 | D:15)
MZ: sets[3] blks[1] (V:1 | T:  1f7 | D:60)
MZ: sets[0] blks[0] (V:1 | T:  8e4 | D:35)
MZ: sets[0] blks[1] (V:1 | T: 35fb | D:24)
MZ: sets[1] blks[0] (V:1 | T:  d1e | D:0)
MZ: sets[1] blks[1] (V:1 | T:  e62 | D:0)
MZ: sets[2] blks[0] (V:1 | T:  d1e | D:2)
MZ: sets[2] blks[1] (V:1 | T:  e62 | D:2)
MZ: sets[3] blks[0] (V:1 | T:  d1e | D:6)
MZ: sets[3] blks[1] (V:1 | T:  e62 | D:7)
